
     RDKit          3D

 99 98  0  0  0  0  0  0  0  0999 V2000
  -13.0045   -0.5234    0.2342 O   0  0  0  0  0  0  0  0  0  0  0  0
  -12.7549    0.8574    0.2365 C   0  0  2  0  0  0  0  0  0  0  0  0
  -12.4450    1.3204   -1.1896 C   0  0  0  0  0  0  0  0  0  0  0  0
  -11.6121    1.2039    1.2123 C   0  0  0  0  0  0  0  0  0  0  0  0
  -10.3443    0.4659    0.8965 C   0  0  0  0  0  0  0  0  0  0  0  0
   -9.4231    1.0484    0.2624 O   0  0  0  0  0  0  0  0  0  0  0  0
  -10.2194   -0.8763    1.2755 O   0  0  0  0  0  0  0  0  0  0  0  0
   -9.0469   -1.6630    1.0489 C   0  0  2  0  0  0  0  0  0  0  0  0
   -9.4763   -3.0426    0.5498 C   0  0  0  0  0  0  0  0  0  0  0  0
   -8.2375   -1.7901    2.3478 C   0  0  0  0  0  0  0  0  0  0  0  0
   -7.7695   -0.4541    2.8389 C   0  0  0  0  0  0  0  0  0  0  0  0
   -8.3083    0.0532    3.8599 O   0  0  0  0  0  0  0  0  0  0  0  0
   -6.7439    0.2200    2.1591 O   0  0  0  0  0  0  0  0  0  0  0  0
   -6.2437    1.5007    2.5610 C   0  0  2  0  0  0  0  0  0  0  0  0
   -7.2376    2.6012    2.1720 C   0  0  0  0  0  0  0  0  0  0  0  0
   -4.8822    1.7554    1.8950 C   0  0  0  0  0  0  0  0  0  0  0  0
   -3.8511    0.7468    2.3045 C   0  0  0  0  0  0  0  0  0  0  0  0
   -3.7387    0.4160    3.5182 O   0  0  0  0  0  0  0  0  0  0  0  0
   -2.9817    0.2219    1.3383 O   0  0  0  0  0  0  0  0  0  0  0  0
   -1.9257   -0.6893    1.6429 C   0  0  2  0  0  0  0  0  0  0  0  0
   -0.7284    0.0623    2.2452 C   0  0  0  0  0  0  0  0  0  0  0  0
   -1.5385   -1.4722    0.3728 C   0  0  0  0  0  0  0  0  0  0  0  0
   -0.9291   -0.6162   -0.6978 C   0  0  0  0  0  0  0  0  0  0  0  0
   -1.6126    0.3010   -1.2319 O   0  0  0  0  0  0  0  0  0  0  0  0
    0.3959   -0.8441   -1.0914 O   0  0  0  0  0  0  0  0  0  0  0  0
    0.9993   -0.2231   -2.2263 C   0  0  2  0  0  0  0  0  0  0  0  0
    0.5480   -0.9583   -3.4981 C   0  0  0  0  0  0  0  0  0  0  0  0
    2.5313   -0.2670   -2.0589 C   0  0  0  0  0  0  0  0  0  0  0  0
    3.2636    0.4730   -3.1420 C   0  0  0  0  0  0  0  0  0  0  0  0
    2.8025    1.5636   -3.5863 O   0  0  0  0  0  0  0  0  0  0  0  0
    4.4911   -0.0213   -3.6037 O   0  0  0  0  0  0  0  0  0  0  0  0
    5.1715    0.5189   -4.7414 C   0  0  2  0  0  0  0  0  0  0  0  0
    4.5061    0.0080   -6.0259 C   0  0  0  0  0  0  0  0  0  0  0  0
    6.6526    0.1098   -4.7030 C   0  0  0  0  0  0  0  0  0  0  0  0
    7.3826    0.7989   -3.5872 C   0  0  0  0  0  0  0  0  0  0  0  0
    7.4671    2.0607   -3.5859 O   0  0  0  0  0  0  0  0  0  0  0  0
    7.9796    0.0423   -2.5705 O   0  0  0  0  0  0  0  0  0  0  0  0
    8.7464    0.6210   -1.5128 C   0  0  2  0  0  0  0  0  0  0  0  0
   10.1299    1.0266   -2.0380 C   0  0  0  0  0  0  0  0  0  0  0  0
    8.8602   -0.3998   -0.3675 C   0  0  0  0  0  0  0  0  0  0  0  0
    9.3694    0.2381    0.8896 C   0  0  0  0  0  0  0  0  0  0  0  0
    8.6094    0.9865    1.5582 O   0  0  0  0  0  0  0  0  0  0  0  0
   10.6939    0.0190    1.2916 O   0  0  0  0  0  0  0  0  0  0  0  0
   11.2528    0.5191    2.5111 C   0  0  2  0  0  0  0  0  0  0  0  0
   12.7473    0.7630    2.2979 C   0  0  0  0  0  0  0  0  0  0  0  0
   11.0411   -0.4860    3.6584 C   0  0  0  0  0  0  0  0  0  0  0  0
    9.5892   -0.6794    3.9705 C   0  0  0  0  0  0  0  0  0  0  0  0
    8.9489    0.2194    4.5777 O   0  0  0  0  0  0  0  0  0  0  0  0
    8.9453   -1.8425    3.5693 O   0  0  0  0  0  0  0  0  0  0  0  0
  -13.4576   -0.7362    1.0907 H   0  0  0  0  0  0  0  0  0  0  0  0
  -13.6718    1.3990    0.5639 H   0  0  0  0  0  0  0  0  0  0  0  0
  -13.3147    1.1123   -1.8533 H   0  0  0  0  0  0  0  0  0  0  0  0
  -12.2436    2.4140   -1.2105 H   0  0  0  0  0  0  0  0  0  0  0  0
  -11.5620    0.7794   -1.5913 H   0  0  0  0  0  0  0  0  0  0  0  0
  -11.4253    2.2999    1.1919 H   0  0  0  0  0  0  0  0  0  0  0  0
  -11.9257    0.9461    2.2469 H   0  0  0  0  0  0  0  0  0  0  0  0
   -8.4063   -1.2131    0.2585 H   0  0  0  0  0  0  0  0  0  0  0  0
   -8.5833   -3.6832    0.3638 H   0  0  0  0  0  0  0  0  0  0  0  0
  -10.0369   -2.9343   -0.4051 H   0  0  0  0  0  0  0  0  0  0  0  0
  -10.1347   -3.5400    1.2963 H   0  0  0  0  0  0  0  0  0  0  0  0
   -7.3476   -2.4294    2.1720 H   0  0  0  0  0  0  0  0  0  0  0  0
   -8.8616   -2.2772    3.1296 H   0  0  0  0  0  0  0  0  0  0  0  0
   -6.1114    1.5233    3.6664 H   0  0  0  0  0  0  0  0  0  0  0  0
   -8.2196    2.4206    2.6570 H   0  0  0  0  0  0  0  0  0  0  0  0
   -7.3773    2.6158    1.0722 H   0  0  0  0  0  0  0  0  0  0  0  0
   -6.8661    3.5905    2.5014 H   0  0  0  0  0  0  0  0  0  0  0  0
   -4.9982    1.7222    0.7903 H   0  0  0  0  0  0  0  0  0  0  0  0
   -4.5082    2.7650    2.1715 H   0  0  0  0  0  0  0  0  0  0  0  0
   -2.2917   -1.4364    2.3850 H   0  0  0  0  0  0  0  0  0  0  0  0
   -0.3868    0.8723    1.5643 H   0  0  0  0  0  0  0  0  0  0  0  0
    0.1145   -0.6397    2.4289 H   0  0  0  0  0  0  0  0  0  0  0  0
   -1.0126    0.5212    3.2179 H   0  0  0  0  0  0  0  0  0  0  0  0
   -2.4456   -1.9686   -0.0413 H   0  0  0  0  0  0  0  0  0  0  0  0
   -0.8177   -2.2751    0.6442 H   0  0  0  0  0  0  0  0  0  0  0  0
    0.6793    0.8415   -2.2811 H   0  0  0  0  0  0  0  0  0  0  0  0
    0.8787   -2.0188   -3.4724 H   0  0  0  0  0  0  0  0  0  0  0  0
   -0.5594   -0.9355   -3.5724 H   0  0  0  0  0  0  0  0  0  0  0  0
    0.9675   -0.4722   -4.4032 H   0  0  0  0  0  0  0  0  0  0  0  0
    2.8044    0.1994   -1.0849 H   0  0  0  0  0  0  0  0  0  0  0  0
    2.8753   -1.3264   -2.0356 H   0  0  0  0  0  0  0  0  0  0  0  0
    5.1047    1.6286   -4.7359 H   0  0  0  0  0  0  0  0  0  0  0  0
    5.0207    0.4255   -6.9177 H   0  0  0  0  0  0  0  0  0  0  0  0
    4.5423   -1.1017   -6.0713 H   0  0  0  0  0  0  0  0  0  0  0  0
    3.4409    0.3256   -6.0643 H   0  0  0  0  0  0  0  0  0  0  0  0
    6.7395   -0.9927   -4.5872 H   0  0  0  0  0  0  0  0  0  0  0  0
    7.1337    0.3918   -5.6597 H   0  0  0  0  0  0  0  0  0  0  0  0
    8.2156    1.5228   -1.1348 H   0  0  0  0  0  0  0  0  0  0  0  0
   10.6596    0.1414   -2.4602 H   0  0  0  0  0  0  0  0  0  0  0  0
   10.0230    1.7807   -2.8421 H   0  0  0  0  0  0  0  0  0  0  0  0
   10.7438    1.4670   -1.2220 H   0  0  0  0  0  0  0  0  0  0  0  0
    9.5287   -1.2395   -0.6654 H   0  0  0  0  0  0  0  0  0  0  0  0
    7.8583   -0.8353   -0.1546 H   0  0  0  0  0  0  0  0  0  0  0  0
   10.7943    1.4958    2.7780 H   0  0  0  0  0  0  0  0  0  0  0  0
   12.8951    1.4784    1.4620 H   0  0  0  0  0  0  0  0  0  0  0  0
   13.2097    1.1938    3.2106 H   0  0  0  0  0  0  0  0  0  0  0  0
   13.2689   -0.1829    2.0472 H   0  0  0  0  0  0  0  0  0  0  0  0
   11.5496   -0.1241    4.5784 H   0  0  0  0  0  0  0  0  0  0  0  0
   11.4897   -1.4636    3.3852 H   0  0  0  0  0  0  0  0  0  0  0  0
    7.9575   -1.9817    3.7544 H   0  0  0  0  0  0  0  0  0  0  0  0
  1  2  1  0
  2  3  1  0
  2  4  1  0
  4  5  1  0
  5  6  2  0
  5  7  1  0
  7  8  1  0
  8  9  1  0
  8 10  1  0
 10 11  1  0
 11 12  2  0
 11 13  1  0
 13 14  1  0
 14 15  1  0
 14 16  1  0
 16 17  1  0
 17 18  2  0
 17 19  1  0
 19 20  1  0
 20 21  1  0
 20 22  1  0
 22 23  1  0
 23 24  2  0
 23 25  1  0
 25 26  1  0
 26 27  1  0
 26 28  1  0
 28 29  1  0
 29 30  2  0
 29 31  1  0
 31 32  1  0
 32 33  1  0
 32 34  1  0
 34 35  1  0
 35 36  2  0
 35 37  1  0
 37 38  1  0
 38 39  1  0
 38 40  1  0
 40 41  1  0
 41 42  2  0
 41 43  1  0
 43 44  1  0
 44 45  1  0
 44 46  1  0
 46 47  1  0
 47 48  2  0
 47 49  1  0
  1 50  1  0
  2 51  1  1
  3 52  1  0
  3 53  1  0
  3 54  1  0
  4 55  1  0
  4 56  1  0
  8 57  1  6
  9 58  1  0
  9 59  1  0
  9 60  1  0
 10 61  1  0
 10 62  1  0
 14 63  1  1
 15 64  1  0
 15 65  1  0
 15 66  1  0
 16 67  1  0
 16 68  1  0
 20 69  1  1
 21 70  1  0
 21 71  1  0
 21 72  1  0
 22 73  1  0
 22 74  1  0
 26 75  1  6
 27 76  1  0
 27 77  1  0
 27 78  1  0
 28 79  1  0
 28 80  1  0
 32 81  1  1
 33 82  1  0
 33 83  1  0
 33 84  1  0
 34 85  1  0
 34 86  1  0
 38 87  1  1
 39 88  1  0
 39 89  1  0
 39 90  1  0
 40 91  1  0
 40 92  1  0
 44 93  1  1
 45 94  1  0
 45 95  1  0
 45 96  1  0
 46 97  1  0
 46 98  1  0
 49 99  1  0
M  END
$$$$
