
     RDKit          2D

113112  0  0  0  0  0  0  0  0999 V2000
   11.6913    2.2500    0.0000 O   0  0  0  0  0  0  0  0  0  0  0  0
   11.6913    0.7500    0.0000 C   0  0  0  0  0  0  0  0  0  0  0  0
   10.3923   -0.0000    0.0000 C   0  0  0  0  0  0  0  0  0  0  0  0
    9.0933    0.7500    0.0000 C   0  0  0  0  0  0  0  0  0  0  0  0
    7.7942   -0.0000    0.0000 C   0  0  0  0  0  0  0  0  0  0  0  0
    6.4952    0.7500    0.0000 C   0  0  0  0  0  0  0  0  0  0  0  0
    5.1962   -0.0000    0.0000 C   0  0  0  0  0  0  0  0  0  0  0  0
    3.8971    0.7500    0.0000 C   0  0  0  0  0  0  0  0  0  0  0  0
    2.5981   -0.0000    0.0000 C   0  0  0  0  0  0  0  0  0  0  0  0
    1.2990    0.7500    0.0000 C   0  0  0  0  0  0  0  0  0  0  0  0
    0.0000    0.0000    0.0000 C   0  0  0  0  0  0  0  0  0  0  0  0
   12.9904   -0.0000    0.0000 C   0  0  0  0  0  0  0  0  0  0  0  0
   14.2894    0.7500    0.0000 C   0  0  0  0  0  0  0  0  0  0  0  0
   14.2894    2.2500    0.0000 O   0  0  0  0  0  0  0  0  0  0  0  0
   15.5885   -0.0000    0.0000 O   0  0  0  0  0  0  0  0  0  0  0  0
   16.8875    0.7500    0.0000 C   0  0  0  0  0  0  0  0  0  0  0  0
   18.1865   -0.0000    0.0000 C   0  0  0  0  0  0  0  0  0  0  0  0
   19.4856    0.7500    0.0000 C   0  0  0  0  0  0  0  0  0  0  0  0
   20.7846   -0.0000    0.0000 C   0  0  0  0  0  0  0  0  0  0  0  0
   22.0836    0.7500    0.0000 C   0  0  0  0  0  0  0  0  0  0  0  0
   23.3827   -0.0000    0.0000 C   0  0  0  0  0  0  0  0  0  0  0  0
   24.6817    0.7500    0.0000 C   0  0  0  0  0  0  0  0  0  0  0  0
   25.9808   -0.0000    0.0000 C   0  0  0  0  0  0  0  0  0  0  0  0
   27.2798    0.7500    0.0000 C   0  0  0  0  0  0  0  0  0  0  0  0
   28.5788   -0.0000    0.0000 C   0  0  0  0  0  0  0  0  0  0  0  0
   16.8875    2.2500    0.0000 C   0  0  0  0  0  0  0  0  0  0  0  0
   18.1865    3.0000    0.0000 C   0  0  0  0  0  0  0  0  0  0  0  0
   19.4856    2.2500    0.0000 O   0  0  0  0  0  0  0  0  0  0  0  0
   18.1865    4.5000    0.0000 O   0  0  0  0  0  0  0  0  0  0  0  0
   19.4856    5.2500    0.0000 C   0  0  0  0  0  0  0  0  0  0  0  0
   19.4856    6.7500    0.0000 C   0  0  0  0  0  0  0  0  0  0  0  0
   20.7846    7.5000    0.0000 C   0  0  0  0  0  0  0  0  0  0  0  0
   20.7846    9.0000    0.0000 C   0  0  0  0  0  0  0  0  0  0  0  0
   22.0836    9.7500    0.0000 C   0  0  0  0  0  0  0  0  0  0  0  0
   22.0836   11.2500    0.0000 C   0  0  0  0  0  0  0  0  0  0  0  0
   23.3827   12.0000    0.0000 C   0  0  0  0  0  0  0  0  0  0  0  0
   23.3827   13.5000    0.0000 C   0  0  0  0  0  0  0  0  0  0  0  0
   24.6817   14.2500    0.0000 C   0  0  0  0  0  0  0  0  0  0  0  0
   24.6817   15.7500    0.0000 C   0  0  0  0  0  0  0  0  0  0  0  0
   20.7846    4.5000    0.0000 C   0  0  0  0  0  0  0  0  0  0  0  0
   22.0836    5.2500    0.0000 C   0  0  0  0  0  0  0  0  0  0  0  0
   22.0836    6.7500    0.0000 O   0  0  0  0  0  0  0  0  0  0  0  0
   23.3827    4.5000    0.0000 O   0  0  0  0  0  0  0  0  0  0  0  0
   24.6817    5.2500    0.0000 C   0  0  0  0  0  0  0  0  0  0  0  0
   25.9808    4.5000    0.0000 C   0  0  0  0  0  0  0  0  0  0  0  0
   27.2798    5.2500    0.0000 C   0  0  0  0  0  0  0  0  0  0  0  0
   28.5788    4.5000    0.0000 C   0  0  0  0  0  0  0  0  0  0  0  0
   29.8779    5.2500    0.0000 C   0  0  0  0  0  0  0  0  0  0  0  0
   31.1769    4.5000    0.0000 C   0  0  0  0  0  0  0  0  0  0  0  0
   32.4760    5.2500    0.0000 C   0  0  0  0  0  0  0  0  0  0  0  0
   33.7750    4.5000    0.0000 C   0  0  0  0  0  0  0  0  0  0  0  0
   35.0740    5.2500    0.0000 C   0  0  0  0  0  0  0  0  0  0  0  0
   36.3731    4.5000    0.0000 C   0  0  0  0  0  0  0  0  0  0  0  0
   24.6817    6.7500    0.0000 C   0  0  0  0  0  0  0  0  0  0  0  0
   25.9808    7.5000    0.0000 C   0  0  0  0  0  0  0  0  0  0  0  0
   27.2798    6.7500    0.0000 O   0  0  0  0  0  0  0  0  0  0  0  0
   25.9808    9.0000    0.0000 O   0  0  0  0  0  0  0  0  0  0  0  0
   27.2798    9.7500    0.0000 C   0  0  0  0  0  0  0  0  0  0  0  0
   27.2798   11.2500    0.0000 C   0  0  0  0  0  0  0  0  0  0  0  0
   28.5788   12.0000    0.0000 C   0  0  0  0  0  0  0  0  0  0  0  0
   28.5788   13.5000    0.0000 C   0  0  0  0  0  0  0  0  0  0  0  0
   29.8779   14.2500    0.0000 C   0  0  0  0  0  0  0  0  0  0  0  0
   29.8779   15.7500    0.0000 C   0  0  0  0  0  0  0  0  0  0  0  0
   31.1769   16.5000    0.0000 C   0  0  0  0  0  0  0  0  0  0  0  0
   31.1769   18.0000    0.0000 C   0  0  0  0  0  0  0  0  0  0  0  0
   32.4760   18.7500    0.0000 C   0  0  0  0  0  0  0  0  0  0  0  0
   32.4760   20.2500    0.0000 C   0  0  0  0  0  0  0  0  0  0  0  0
   28.5788    9.0000    0.0000 C   0  0  0  0  0  0  0  0  0  0  0  0
   29.8779    9.7500    0.0000 C   0  0  0  0  0  0  0  0  0  0  0  0
   29.8779   11.2500    0.0000 O   0  0  0  0  0  0  0  0  0  0  0  0
   31.1769    9.0000    0.0000 O   0  0  0  0  0  0  0  0  0  0  0  0
   32.4760    9.7500    0.0000 C   0  0  0  0  0  0  0  0  0  0  0  0
   33.7750    9.0000    0.0000 C   0  0  0  0  0  0  0  0  0  0  0  0
   35.0740    9.7500    0.0000 C   0  0  0  0  0  0  0  0  0  0  0  0
   36.3731    9.0000    0.0000 C   0  0  0  0  0  0  0  0  0  0  0  0
   37.6721    9.7500    0.0000 C   0  0  0  0  0  0  0  0  0  0  0  0
   38.9711    9.0000    0.0000 C   0  0  0  0  0  0  0  0  0  0  0  0
   40.2702    9.7500    0.0000 C   0  0  0  0  0  0  0  0  0  0  0  0
   41.5692    9.0000    0.0000 C   0  0  0  0  0  0  0  0  0  0  0  0
   42.8683    9.7500    0.0000 C   0  0  0  0  0  0  0  0  0  0  0  0
   44.1673    9.0000    0.0000 C   0  0  0  0  0  0  0  0  0  0  0  0
   32.4760   11.2500    0.0000 C   0  0  0  0  0  0  0  0  0  0  0  0
   33.7750   12.0000    0.0000 C   0  0  0  0  0  0  0  0  0  0  0  0
   35.0740   11.2500    0.0000 O   0  0  0  0  0  0  0  0  0  0  0  0
   33.7750   13.5000    0.0000 O   0  0  0  0  0  0  0  0  0  0  0  0
   35.0740   14.2500    0.0000 C   0  0  0  0  0  0  0  0  0  0  0  0
   35.0740   15.7500    0.0000 C   0  0  0  0  0  0  0  0  0  0  0  0
   36.3731   16.5000    0.0000 C   0  0  0  0  0  0  0  0  0  0  0  0
   36.3731   18.0000    0.0000 C   0  0  0  0  0  0  0  0  0  0  0  0
   37.6721   18.7500    0.0000 C   0  0  0  0  0  0  0  0  0  0  0  0
   37.6721   20.2500    0.0000 C   0  0  0  0  0  0  0  0  0  0  0  0
   38.9711   21.0000    0.0000 C   0  0  0  0  0  0  0  0  0  0  0  0
   38.9711   22.5000    0.0000 C   0  0  0  0  0  0  0  0  0  0  0  0
   40.2702   23.2500    0.0000 C   0  0  0  0  0  0  0  0  0  0  0  0
   40.2702   24.7500    0.0000 C   0  0  0  0  0  0  0  0  0  0  0  0
   36.3731   13.5000    0.0000 C   0  0  0  0  0  0  0  0  0  0  0  0
   37.6721   14.2500    0.0000 C   0  0  0  0  0  0  0  0  0  0  0  0
   37.6721   15.7500    0.0000 O   0  0  0  0  0  0  0  0  0  0  0  0
   38.9711   13.5000    0.0000 O   0  0  0  0  0  0  0  0  0  0  0  0
   40.2702   14.2500    0.0000 C   0  0  0  0  0  0  0  0  0  0  0  0
   41.5692   13.5000    0.0000 C   0  0  0  0  0  0  0  0  0  0  0  0
   42.8683   14.2500    0.0000 C   0  0  0  0  0  0  0  0  0  0  0  0
   44.1673   13.5000    0.0000 C   0  0  0  0  0  0  0  0  0  0  0  0
   45.4663   14.2500    0.0000 C   0  0  0  0  0  0  0  0  0  0  0  0
   46.7654   13.5000    0.0000 C   0  0  0  0  0  0  0  0  0  0  0  0
   48.0644   14.2500    0.0000 C   0  0  0  0  0  0  0  0  0  0  0  0
   49.3634   13.5000    0.0000 C   0  0  0  0  0  0  0  0  0  0  0  0
   50.6625   14.2500    0.0000 C   0  0  0  0  0  0  0  0  0  0  0  0
   51.9615   13.5000    0.0000 C   0  0  0  0  0  0  0  0  0  0  0  0
   40.2702   15.7500    0.0000 C   0  0  0  0  0  0  0  0  0  0  0  0
   41.5692   16.5000    0.0000 C   0  0  0  0  0  0  0  0  0  0  0  0
   42.8683   15.7500    0.0000 O   0  0  0  0  0  0  0  0  0  0  0  0
   41.5692   18.0000    0.0000 O   0  0  0  0  0  0  0  0  0  0  0  0
  2  1  1  1
  2  3  1  0
  3  4  1  0
  4  5  1  0
  5  6  1  0
  6  7  1  0
  7  8  1  0
  8  9  1  0
  9 10  1  0
 10 11  1  0
  2 12  1  0
 12 13  1  0
 13 14  2  0
 13 15  1  0
 15 16  1  0
 16 17  1  1
 17 18  1  0
 18 19  1  0
 19 20  1  0
 20 21  1  0
 21 22  1  0
 22 23  1  0
 23 24  1  0
 24 25  1  0
 16 26  1  0
 26 27  1  0
 27 28  2  0
 27 29  1  0
 29 30  1  0
 30 31  1  6
 31 32  1  0
 32 33  1  0
 33 34  1  0
 34 35  1  0
 35 36  1  0
 36 37  1  0
 37 38  1  0
 38 39  1  0
 30 40  1  0
 40 41  1  0
 41 42  2  0
 41 43  1  0
 43 44  1  0
 44 45  1  1
 45 46  1  0
 46 47  1  0
 47 48  1  0
 48 49  1  0
 49 50  1  0
 50 51  1  0
 51 52  1  0
 52 53  1  0
 44 54  1  0
 54 55  1  0
 55 56  2  0
 55 57  1  0
 57 58  1  0
 58 59  1  6
 59 60  1  0
 60 61  1  0
 61 62  1  0
 62 63  1  0
 63 64  1  0
 64 65  1  0
 65 66  1  0
 66 67  1  0
 58 68  1  0
 68 69  1  0
 69 70  2  0
 69 71  1  0
 71 72  1  0
 72 73  1  1
 73 74  1  0
 74 75  1  0
 75 76  1  0
 76 77  1  0
 77 78  1  0
 78 79  1  0
 79 80  1  0
 80 81  1  0
 72 82  1  0
 82 83  1  0
 83 84  2  0
 83 85  1  0
 85 86  1  0
 86 87  1  6
 87 88  1  0
 88 89  1  0
 89 90  1  0
 90 91  1  0
 91 92  1  0
 92 93  1  0
 93 94  1  0
 94 95  1  0
 86 96  1  0
 96 97  1  0
 97 98  2  0
 97 99  1  0
 99100  1  0
100101  1  1
101102  1  0
102103  1  0
103104  1  0
104105  1  0
105106  1  0
106107  1  0
107108  1  0
108109  1  0
100110  1  0
110111  1  0
111112  2  0
111113  1  0
M  END
$$$$
