
     RDKit          3D

147146  0  0  0  0  0  0  0  0999 V2000
    3.7231   -3.2625    0.5705 O   0  0  0  0  0  0  0  0  0  0  0  0
    4.1293   -2.0740    1.2053 C   0  0  2  0  0  0  0  0  0  0  0  0
    3.2437   -1.8135    2.4463 C   0  0  0  0  0  0  0  0  0  0  0  0
    3.7107   -2.5627    3.7045 C   0  0  0  0  0  0  0  0  0  0  0  0
    3.6413   -4.0881    3.5512 C   0  0  0  0  0  0  0  0  0  0  0  0
    4.0236   -4.7878    4.8623 C   0  0  0  0  0  0  0  0  0  0  0  0
    3.9566   -6.3236    4.7687 C   0  0  0  0  0  0  0  0  0  0  0  0
    4.8460   -6.9505    3.6796 C   0  0  0  0  0  0  0  0  0  0  0  0
    6.3289   -6.5598    3.8138 C   0  0  0  0  0  0  0  0  0  0  0  0
    7.2356   -7.3399    2.8508 C   0  0  0  0  0  0  0  0  0  0  0  0
    7.0154   -6.9494    1.3901 C   0  0  0  0  0  0  0  0  0  0  0  0
    4.0810   -0.9074    0.1968 C   0  0  0  0  0  0  0  0  0  0  0  0
    2.7229   -0.7056   -0.4088 C   0  0  0  0  0  0  0  0  0  0  0  0
    1.7458   -0.4084    0.3277 O   0  0  0  0  0  0  0  0  0  0  0  0
    2.5549   -0.7952   -1.7954 O   0  0  0  0  0  0  0  0  0  0  0  0
    1.3164   -0.4893   -2.4423 C   0  0  2  0  0  0  0  0  0  0  0  0
    1.3470   -1.0377   -3.8800 C   0  0  0  0  0  0  0  0  0  0  0  0
    1.4284   -2.5777   -3.9434 C   0  0  0  0  0  0  0  0  0  0  0  0
    0.0521   -3.2779   -3.9267 C   0  0  0  0  0  0  0  0  0  0  0  0
   -0.3208   -3.8429   -2.5444 C   0  0  0  0  0  0  0  0  0  0  0  0
   -1.7675   -4.3710   -2.4927 C   0  0  0  0  0  0  0  0  0  0  0  0
   -2.0691   -5.5413   -3.4513 C   0  0  0  0  0  0  0  0  0  0  0  0
   -1.1793   -6.7839   -3.2640 C   0  0  0  0  0  0  0  0  0  0  0  0
   -1.3235   -7.4122   -1.8699 C   0  0  0  0  0  0  0  0  0  0  0  0
   -0.5566   -8.7285   -1.7732 C   0  0  0  0  0  0  0  0  0  0  0  0
    1.0933    1.0404   -2.4381 C   0  0  0  0  0  0  0  0  0  0  0  0
   -0.3338    1.4296   -2.6827 C   0  0  0  0  0  0  0  0  0  0  0  0
   -1.2721    0.7579   -2.1687 O   0  0  0  0  0  0  0  0  0  0  0  0
   -0.6083    2.6012   -3.3940 O   0  0  0  0  0  0  0  0  0  0  0  0
   -1.8766    3.2646   -3.3663 C   0  0  2  0  0  0  0  0  0  0  0  0
   -2.1176    4.0073   -4.7018 C   0  0  0  0  0  0  0  0  0  0  0  0
   -0.9295    4.8165   -5.2757 C   0  0  0  0  0  0  0  0  0  0  0  0
   -0.5972    6.1517   -4.5825 C   0  0  0  0  0  0  0  0  0  0  0  0
   -1.7921    7.1136   -4.4910 C   0  0  0  0  0  0  0  0  0  0  0  0
   -1.3655    8.4674   -3.9023 C   0  0  0  0  0  0  0  0  0  0  0  0
   -2.4873    9.5195   -3.9530 C   0  0  0  0  0  0  0  0  0  0  0  0
   -3.7010    9.2182   -3.0526 C   0  0  0  0  0  0  0  0  0  0  0  0
   -3.3816    9.2715   -1.5420 C   0  0  0  0  0  0  0  0  0  0  0  0
   -3.2980    7.8794   -0.9136 C   0  0  0  0  0  0  0  0  0  0  0  0
   -1.9754    4.1958   -2.1383 C   0  0  0  0  0  0  0  0  0  0  0  0
   -2.1928    3.4450   -0.8584 C   0  0  0  0  0  0  0  0  0  0  0  0
   -1.4366    3.6673    0.1294 O   0  0  0  0  0  0  0  0  0  0  0  0
   -3.2859    2.5796   -0.7364 O   0  0  0  0  0  0  0  0  0  0  0  0
   -3.6970    1.9929    0.5016 C   0  0  2  0  0  0  0  0  0  0  0  0
   -2.7839    0.7958    0.8434 C   0  0  0  0  0  0  0  0  0  0  0  0
   -3.0736    0.2039    2.2357 C   0  0  0  0  0  0  0  0  0  0  0  0
   -2.0047   -0.8178    2.6760 C   0  0  0  0  0  0  0  0  0  0  0  0
   -0.9896   -0.2504    3.6851 C   0  0  0  0  0  0  0  0  0  0  0  0
   -0.0950    0.8381    3.0733 C   0  0  0  0  0  0  0  0  0  0  0  0
    1.1351    1.1493    3.9374 C   0  0  0  0  0  0  0  0  0  0  0  0
    0.7837    1.9577    5.1926 C   0  0  0  0  0  0  0  0  0  0  0  0
    2.0538    2.3745    5.9411 C   0  0  0  0  0  0  0  0  0  0  0  0
    1.7204    3.1933    7.1855 C   0  0  0  0  0  0  0  0  0  0  0  0
   -5.1699    1.5719    0.3837 C   0  0  0  0  0  0  0  0  0  0  0  0
   -6.0223    2.7152   -0.0789 C   0  0  0  0  0  0  0  0  0  0  0  0
   -6.7067    2.6053   -1.1329 O   0  0  0  0  0  0  0  0  0  0  0  0
   -6.0589    3.8986    0.6535 O   0  0  0  0  0  0  0  0  0  0  0  0
    4.5378   -3.6703    0.1779 H   0  0  0  0  0  0  0  0  0  0  0  0
    5.1887   -2.1598    1.5479 H   0  0  0  0  0  0  0  0  0  0  0  0
    2.1870   -2.0835    2.2315 H   0  0  0  0  0  0  0  0  0  0  0  0
    3.2646   -0.7291    2.6896 H   0  0  0  0  0  0  0  0  0  0  0  0
    4.7529   -2.2577    3.9496 H   0  0  0  0  0  0  0  0  0  0  0  0
    3.0613   -2.2531    4.5513 H   0  0  0  0  0  0  0  0  0  0  0  0
    4.3508   -4.3934    2.7567 H   0  0  0  0  0  0  0  0  0  0  0  0
    2.6136   -4.3886    3.2533 H   0  0  0  0  0  0  0  0  0  0  0  0
    3.3184   -4.4629    5.6604 H   0  0  0  0  0  0  0  0  0  0  0  0
    5.0391   -4.4733    5.1805 H   0  0  0  0  0  0  0  0  0  0  0  0
    4.2472   -6.7489    5.7543 H   0  0  0  0  0  0  0  0  0  0  0  0
    2.9045   -6.6270    4.5816 H   0  0  0  0  0  0  0  0  0  0  0  0
    4.4607   -6.6690    2.6783 H   0  0  0  0  0  0  0  0  0  0  0  0
    4.7561   -8.0556    3.7613 H   0  0  0  0  0  0  0  0  0  0  0  0
    6.4637   -5.4741    3.6287 H   0  0  0  0  0  0  0  0  0  0  0  0
    6.6639   -6.7729    4.8533 H   0  0  0  0  0  0  0  0  0  0  0  0
    7.0759   -8.4338    2.9733 H   0  0  0  0  0  0  0  0  0  0  0  0
    8.2947   -7.1246    3.1118 H   0  0  0  0  0  0  0  0  0  0  0  0
    7.7801   -7.4451    0.7534 H   0  0  0  0  0  0  0  0  0  0  0  0
    6.0130   -7.2759    1.0417 H   0  0  0  0  0  0  0  0  0  0  0  0
    7.1116   -5.8488    1.2613 H   0  0  0  0  0  0  0  0  0  0  0  0
    4.8126   -1.1110   -0.6170 H   0  0  0  0  0  0  0  0  0  0  0  0
    4.3985    0.0350    0.6952 H   0  0  0  0  0  0  0  0  0  0  0  0
    0.4891   -0.9799   -1.8889 H   0  0  0  0  0  0  0  0  0  0  0  0
    2.2417   -0.6208   -4.3896 H   0  0  0  0  0  0  0  0  0  0  0  0
    0.4652   -0.6771   -4.4490 H   0  0  0  0  0  0  0  0  0  0  0  0
    1.9218   -2.8386   -4.9075 H   0  0  0  0  0  0  0  0  0  0  0  0
    2.0918   -2.9774   -3.1467 H   0  0  0  0  0  0  0  0  0  0  0  0
   -0.7491   -2.5928   -4.2842 H   0  0  0  0  0  0  0  0  0  0  0  0
    0.0938   -4.1265   -4.6442 H   0  0  0  0  0  0  0  0  0  0  0  0
   -0.2362   -3.0479   -1.7795 H   0  0  0  0  0  0  0  0  0  0  0  0
    0.3936   -4.6403   -2.2520 H   0  0  0  0  0  0  0  0  0  0  0  0
   -2.0035   -4.6736   -1.4498 H   0  0  0  0  0  0  0  0  0  0  0  0
   -2.4595   -3.5334   -2.7363 H   0  0  0  0  0  0  0  0  0  0  0  0
   -3.1307   -5.8375   -3.3130 H   0  0  0  0  0  0  0  0  0  0  0  0
   -1.9778   -5.1903   -4.5018 H   0  0  0  0  0  0  0  0  0  0  0  0
   -0.1166   -6.5326   -3.4632 H   0  0  0  0  0  0  0  0  0  0  0  0
   -1.4866   -7.5321   -4.0272 H   0  0  0  0  0  0  0  0  0  0  0  0
   -0.9264   -6.7215   -1.0977 H   0  0  0  0  0  0  0  0  0  0  0  0
   -2.3985   -7.6070   -1.6527 H   0  0  0  0  0  0  0  0  0  0  0  0
   -0.9452   -9.4592   -2.5161 H   0  0  0  0  0  0  0  0  0  0  0  0
   -0.6804   -9.1555   -0.7549 H   0  0  0  0  0  0  0  0  0  0  0  0
    0.5279   -8.5573   -1.9594 H   0  0  0  0  0  0  0  0  0  0  0  0
    1.3744    1.4637   -1.4527 H   0  0  0  0  0  0  0  0  0  0  0  0
    1.7491    1.5232   -3.1955 H   0  0  0  0  0  0  0  0  0  0  0  0
   -2.6934    2.5092   -3.2973 H   0  0  0  0  0  0  0  0  0  0  0  0
   -3.0344    4.6287   -4.6432 H   0  0  0  0  0  0  0  0  0  0  0  0
   -2.3524    3.2267   -5.4581 H   0  0  0  0  0  0  0  0  0  0  0  0
   -0.0168    4.1839   -5.2888 H   0  0  0  0  0  0  0  0  0  0  0  0
   -1.1632    5.0450   -6.3394 H   0  0  0  0  0  0  0  0  0  0  0  0
    0.2015    6.6415   -5.1817 H   0  0  0  0  0  0  0  0  0  0  0  0
   -0.1572    5.9788   -3.5846 H   0  0  0  0  0  0  0  0  0  0  0  0
   -2.5719    6.6771   -3.8358 H   0  0  0  0  0  0  0  0  0  0  0  0
   -2.2212    7.2655   -5.5070 H   0  0  0  0  0  0  0  0  0  0  0  0
   -0.5108    8.8626   -4.4941 H   0  0  0  0  0  0  0  0  0  0  0  0
   -1.0061    8.3378   -2.8606 H   0  0  0  0  0  0  0  0  0  0  0  0
   -2.0620   10.5053   -3.6628 H   0  0  0  0  0  0  0  0  0  0  0  0
   -2.8401    9.6203   -5.0028 H   0  0  0  0  0  0  0  0  0  0  0  0
   -4.1732    8.2544   -3.3380 H   0  0  0  0  0  0  0  0  0  0  0  0
   -4.4611   10.0029   -3.2661 H   0  0  0  0  0  0  0  0  0  0  0  0
   -2.4339    9.8202   -1.3514 H   0  0  0  0  0  0  0  0  0  0  0  0
   -4.1914    9.8295   -1.0238 H   0  0  0  0  0  0  0  0  0  0  0  0
   -3.0849    7.9795    0.1713 H   0  0  0  0  0  0  0  0  0  0  0  0
   -4.2652    7.3484   -1.0337 H   0  0  0  0  0  0  0  0  0  0  0  0
   -2.4905    7.2804   -1.3773 H   0  0  0  0  0  0  0  0  0  0  0  0
   -2.8290    4.8987   -2.2587 H   0  0  0  0  0  0  0  0  0  0  0  0
   -1.0447    4.7873   -2.0370 H   0  0  0  0  0  0  0  0  0  0  0  0
   -3.6167    2.7552    1.3106 H   0  0  0  0  0  0  0  0  0  0  0  0
   -1.7288    1.1369    0.8028 H   0  0  0  0  0  0  0  0  0  0  0  0
   -2.8998    0.0036    0.0708 H   0  0  0  0  0  0  0  0  0  0  0  0
   -3.1691    1.0174    2.9871 H   0  0  0  0  0  0  0  0  0  0  0  0
   -4.0526   -0.3206    2.1929 H   0  0  0  0  0  0  0  0  0  0  0  0
   -2.5199   -1.6682    3.1721 H   0  0  0  0  0  0  0  0  0  0  0  0
   -1.4730   -1.2434    1.7979 H   0  0  0  0  0  0  0  0  0  0  0  0
   -0.3537   -1.0938    4.0329 H   0  0  0  0  0  0  0  0  0  0  0  0
   -1.5296    0.1566    4.5693 H   0  0  0  0  0  0  0  0  0  0  0  0
   -0.6820    1.7678    2.9055 H   0  0  0  0  0  0  0  0  0  0  0  0
    0.2656    0.4888    2.0854 H   0  0  0  0  0  0  0  0  0  0  0  0
    1.8511    1.7333    3.3176 H   0  0  0  0  0  0  0  0  0  0  0  0
    1.6414    0.2051    4.2323 H   0  0  0  0  0  0  0  0  0  0  0  0
    0.2165    2.8680    4.8987 H   0  0  0  0  0  0  0  0  0  0  0  0
    0.1466    1.3435    5.8626 H   0  0  0  0  0  0  0  0  0  0  0  0
    2.6966    2.9880    5.2754 H   0  0  0  0  0  0  0  0  0  0  0  0
    2.6250    1.4716    6.2431 H   0  0  0  0  0  0  0  0  0  0  0  0
    1.1709    4.1169    6.9028 H   0  0  0  0  0  0  0  0  0  0  0  0
    1.1009    2.5952    7.8850 H   0  0  0  0  0  0  0  0  0  0  0  0
    2.6603    3.4827    7.7020 H   0  0  0  0  0  0  0  0  0  0  0  0
   -5.5545    1.2411    1.3704 H   0  0  0  0  0  0  0  0  0  0  0  0
   -5.2616    0.7228   -0.3292 H   0  0  0  0  0  0  0  0  0  0  0  0
   -6.6260    4.6802    0.3467 H   0  0  0  0  0  0  0  0  0  0  0  0
  1  2  1  0
  2  3  1  0
  3  4  1  0
  4  5  1  0
  5  6  1  0
  6  7  1  0
  7  8  1  0
  8  9  1  0
  9 10  1  0
 10 11  1  0
  2 12  1  0
 12 13  1  0
 13 14  2  0
 13 15  1  0
 15 16  1  0
 16 17  1  0
 17 18  1  0
 18 19  1  0
 19 20  1  0
 20 21  1  0
 21 22  1  0
 22 23  1  0
 23 24  1  0
 24 25  1  0
 16 26  1  0
 26 27  1  0
 27 28  2  0
 27 29  1  0
 29 30  1  0
 30 31  1  0
 31 32  1  0
 32 33  1  0
 33 34  1  0
 34 35  1  0
 35 36  1  0
 36 37  1  0
 37 38  1  0
 38 39  1  0
 30 40  1  0
 40 41  1  0
 41 42  2  0
 41 43  1  0
 43 44  1  0
 44 45  1  0
 45 46  1  0
 46 47  1  0
 47 48  1  0
 48 49  1  0
 49 50  1  0
 50 51  1  0
 51 52  1  0
 52 53  1  0
 44 54  1  0
 54 55  1  0
 55 56  2  0
 55 57  1  0
  1 58  1  0
  2 59  1  1
  3 60  1  0
  3 61  1  0
  4 62  1  0
  4 63  1  0
  5 64  1  0
  5 65  1  0
  6 66  1  0
  6 67  1  0
  7 68  1  0
  7 69  1  0
  8 70  1  0
  8 71  1  0
  9 72  1  0
  9 73  1  0
 10 74  1  0
 10 75  1  0
 11 76  1  0
 11 77  1  0
 11 78  1  0
 12 79  1  0
 12 80  1  0
 16 81  1  1
 17 82  1  0
 17 83  1  0
 18 84  1  0
 18 85  1  0
 19 86  1  0
 19 87  1  0
 20 88  1  0
 20 89  1  0
 21 90  1  0
 21 91  1  0
 22 92  1  0
 22 93  1  0
 23 94  1  0
 23 95  1  0
 24 96  1  0
 24 97  1  0
 25 98  1  0
 25 99  1  0
 25100  1  0
 26101  1  0
 26102  1  0
 30103  1  1
 31104  1  0
 31105  1  0
 32106  1  0
 32107  1  0
 33108  1  0
 33109  1  0
 34110  1  0
 34111  1  0
 35112  1  0
 35113  1  0
 36114  1  0
 36115  1  0
 37116  1  0
 37117  1  0
 38118  1  0
 38119  1  0
 39120  1  0
 39121  1  0
 39122  1  0
 40123  1  0
 40124  1  0
 44125  1  1
 45126  1  0
 45127  1  0
 46128  1  0
 46129  1  0
 47130  1  0
 47131  1  0
 48132  1  0
 48133  1  0
 49134  1  0
 49135  1  0
 50136  1  0
 50137  1  0
 51138  1  0
 51139  1  0
 52140  1  0
 52141  1  0
 53142  1  0
 53143  1  0
 53144  1  0
 54145  1  0
 54146  1  0
 57147  1  0
M  END
$$$$
