
     RDKit          3D

291290  0  0  0  0  0  0  0  0999 V2000
    4.4773    1.6605   -1.4790 O   0  0  0  0  0  0  0  0  0  0  0  0
    4.6545    2.7760   -2.3325 C   0  0  2  0  0  0  0  0  0  0  0  0
    5.1189    2.3252   -3.7242 C   0  0  0  0  0  0  0  0  0  0  0  0
    4.2948    1.1977   -4.3599 C   0  0  0  0  0  0  0  0  0  0  0  0
    2.8532    1.5866   -4.7608 C   0  0  0  0  0  0  0  0  0  0  0  0
    1.8402    1.3189   -3.6332 C   0  0  0  0  0  0  0  0  0  0  0  0
    0.4320    1.8006   -4.0255 C   0  0  0  0  0  0  0  0  0  0  0  0
   -0.5149    1.5847   -2.8343 C   0  0  0  0  0  0  0  0  0  0  0  0
   -1.9850    1.8013   -3.1655 C   0  0  0  0  0  0  0  0  0  0  0  0
   -2.3270    3.2379   -3.6052 C   0  0  0  0  0  0  0  0  0  0  0  0
   -3.8459    3.3687   -3.7390 C   0  0  0  0  0  0  0  0  0  0  0  0
    5.6373    3.7873   -1.7213 C   0  0  0  0  0  0  0  0  0  0  0  0
    5.0841    4.3604   -0.4559 C   0  0  0  0  0  0  0  0  0  0  0  0
    4.3201    5.3672   -0.5391 O   0  0  0  0  0  0  0  0  0  0  0  0
    5.3428    3.7472    0.7772 O   0  0  0  0  0  0  0  0  0  0  0  0
    4.8040    4.2362    2.0029 C   0  0  2  0  0  0  0  0  0  0  0  0
    5.7736    5.2463    2.6598 C   0  0  0  0  0  0  0  0  0  0  0  0
    5.1729    5.9860    3.8794 C   0  0  0  0  0  0  0  0  0  0  0  0
    4.1732    7.0807    3.4811 C   0  0  0  0  0  0  0  0  0  0  0  0
    3.5784    7.7015    4.7610 C   0  0  0  0  0  0  0  0  0  0  0  0
    2.9133    9.0648    4.4944 C   0  0  0  0  0  0  0  0  0  0  0  0
    1.6663    8.9691    3.6077 C   0  0  0  0  0  0  0  0  0  0  0  0
    1.0122   10.3517    3.5228 C   0  0  0  0  0  0  0  0  0  0  0  0
   -0.2295   10.3302    2.6334 C   0  0  0  0  0  0  0  0  0  0  0  0
   -0.9509   11.6686    2.7001 C   0  0  0  0  0  0  0  0  0  0  0  0
    4.3925    3.0750    2.9150 C   0  0  0  0  0  0  0  0  0  0  0  0
    5.4595    2.1199    3.3851 C   0  0  0  0  0  0  0  0  0  0  0  0
    6.6905    2.3850    3.1937 O   0  0  0  0  0  0  0  0  0  0  0  0
    5.0933    1.1302    4.3111 O   0  0  0  0  0  0  0  0  0  0  0  0
    3.9640    0.2652    4.0870 C   0  0  2  0  0  0  0  0  0  0  0  0
    3.9494   -0.4196    2.6532 C   0  0  0  0  0  0  0  0  0  0  0  0
    3.1146    0.0428    1.4222 C   0  0  0  0  0  0  0  0  0  0  0  0
    1.5914   -0.0182    1.5875 C   0  0  0  0  0  0  0  0  0  0  0  0
    0.8156    0.3012    0.2974 C   0  0  0  0  0  0  0  0  0  0  0  0
   -0.6943    0.1540    0.5331 C   0  0  0  0  0  0  0  0  0  0  0  0
   -1.2555    1.2292    1.4801 C   0  0  0  0  0  0  0  0  0  0  0  0
   -2.7671    1.0410    1.6284 C   0  0  0  0  0  0  0  0  0  0  0  0
   -3.3290    2.0899    2.5894 C   0  0  0  0  0  0  0  0  0  0  0  0
   -4.8506    1.9919    2.6796 C   0  0  0  0  0  0  0  0  0  0  0  0
    2.6866    0.9177    4.6451 C   0  0  0  0  0  0  0  0  0  0  0  0
    1.6167   -0.0198    5.0533 C   0  0  0  0  0  0  0  0  0  0  0  0
    1.4073   -1.0800    4.3913 O   0  0  0  0  0  0  0  0  0  0  0  0
    0.8653    0.2754    6.2128 O   0  0  0  0  0  0  0  0  0  0  0  0
   -0.5269   -0.0021    6.3760 C   0  0  2  0  0  0  0  0  0  0  0  0
   -1.0531    0.8352    7.5738 C   0  0  0  0  0  0  0  0  0  0  0  0
   -1.4180    2.2482    7.1015 C   0  0  0  0  0  0  0  0  0  0  0  0
   -0.1664    3.0765    6.7534 C   0  0  0  0  0  0  0  0  0  0  0  0
   -0.4660    4.4713    6.2184 C   0  0  0  0  0  0  0  0  0  0  0  0
   -1.2338    4.4131    4.8910 C   0  0  0  0  0  0  0  0  0  0  0  0
   -1.2871    5.7825    4.2192 C   0  0  0  0  0  0  0  0  0  0  0  0
   -1.9945    5.6349    2.8719 C   0  0  0  0  0  0  0  0  0  0  0  0
   -2.0584    6.9443    2.0943 C   0  0  0  0  0  0  0  0  0  0  0  0
   -2.7334    6.7095    0.7515 C   0  0  0  0  0  0  0  0  0  0  0  0
   -0.7556   -1.5222    6.5663 C   0  0  0  0  0  0  0  0  0  0  0  0
   -0.9979   -2.2289    5.2698 C   0  0  0  0  0  0  0  0  0  0  0  0
   -1.2469   -1.5519    4.2084 O   0  0  0  0  0  0  0  0  0  0  0  0
   -0.9866   -3.6237    5.1807 O   0  0  0  0  0  0  0  0  0  0  0  0
   -1.3300   -4.2828    3.9877 C   0  0  2  0  0  0  0  0  0  0  0  0
   -2.7976   -4.7375    4.0517 C   0  0  0  0  0  0  0  0  0  0  0  0
   -3.7335   -3.5199    3.9475 C   0  0  0  0  0  0  0  0  0  0  0  0
   -5.1781   -3.9627    3.7523 C   0  0  0  0  0  0  0  0  0  0  0  0
   -6.1024   -2.7524    3.6883 C   0  0  0  0  0  0  0  0  0  0  0  0
   -7.5334   -3.1041    3.2779 C   0  0  0  0  0  0  0  0  0  0  0  0
   -8.1904   -4.1475    4.2078 C   0  0  0  0  0  0  0  0  0  0  0  0
   -9.6472   -4.3948    3.8355 C   0  0  0  0  0  0  0  0  0  0  0  0
   -9.7916   -5.0393    2.4468 C   0  0  0  0  0  0  0  0  0  0  0  0
  -11.2372   -5.4506    2.2158 C   0  0  0  0  0  0  0  0  0  0  0  0
   -0.3538   -5.4461    3.7616 C   0  0  0  0  0  0  0  0  0  0  0  0
   -0.5981   -6.0115    2.4093 C   0  0  0  0  0  0  0  0  0  0  0  0
   -1.3141   -7.0465    2.3215 O   0  0  0  0  0  0  0  0  0  0  0  0
   -0.1143   -5.3767    1.2405 O   0  0  0  0  0  0  0  0  0  0  0  0
   -0.2906   -5.9565   -0.0694 C   0  0  2  0  0  0  0  0  0  0  0  0
    0.6369   -7.1770   -0.2803 C   0  0  0  0  0  0  0  0  0  0  0  0
    2.1372   -6.8263   -0.2610 C   0  0  0  0  0  0  0  0  0  0  0  0
    2.9500   -7.9257    0.3828 C   0  0  0  0  0  0  0  0  0  0  0  0
    4.4625   -7.7943    0.0798 C   0  0  0  0  0  0  0  0  0  0  0  0
    5.1493   -6.5677    0.7179 C   0  0  0  0  0  0  0  0  0  0  0  0
    5.1068   -5.3417   -0.2095 C   0  0  0  0  0  0  0  0  0  0  0  0
    5.5597   -4.0498    0.5143 C   0  0  0  0  0  0  0  0  0  0  0  0
    4.9469   -2.8032   -0.1447 C   0  0  0  0  0  0  0  0  0  0  0  0
    5.2783   -2.7198   -1.6360 C   0  0  0  0  0  0  0  0  0  0  0  0
   -0.1017   -4.8523   -1.1537 C   0  0  0  0  0  0  0  0  0  0  0  0
   -1.2243   -4.7778   -2.1211 C   0  0  0  0  0  0  0  0  0  0  0  0
   -2.0020   -3.7723   -2.0295 O   0  0  0  0  0  0  0  0  0  0  0  0
   -1.2930   -5.6467   -3.2082 O   0  0  0  0  0  0  0  0  0  0  0  0
   -1.9704   -5.3250   -4.4218 C   0  0  2  0  0  0  0  0  0  0  0  0
   -3.3899   -5.9414   -4.4377 C   0  0  0  0  0  0  0  0  0  0  0  0
   -4.0969   -5.6549   -5.7743 C   0  0  0  0  0  0  0  0  0  0  0  0
   -5.6171   -5.7211   -5.7610 C   0  0  0  0  0  0  0  0  0  0  0  0
   -6.2841   -4.7059   -4.8341 C   0  0  0  0  0  0  0  0  0  0  0  0
   -5.8816   -3.2685   -5.1625 C   0  0  0  0  0  0  0  0  0  0  0  0
   -6.6400   -2.2926   -4.2883 C   0  0  0  0  0  0  0  0  0  0  0  0
   -6.2827   -0.8320   -4.6006 C   0  0  0  0  0  0  0  0  0  0  0  0
   -6.6666   -0.3587   -6.0169 C   0  0  0  0  0  0  0  0  0  0  0  0
   -8.1389   -0.6062   -6.3554 C   0  0  0  0  0  0  0  0  0  0  0  0
   -1.1410   -5.8371   -5.6626 C   0  0  0  0  0  0  0  0  0  0  0  0
    0.3194   -5.8338   -5.4481 C   0  0  0  0  0  0  0  0  0  0  0  0
    0.9269   -6.9282   -5.5852 O   0  0  0  0  0  0  0  0  0  0  0  0
    1.0159   -4.6172   -5.3443 O   0  0  0  0  0  0  0  0  0  0  0  0
    2.0379   -4.2687   -6.2821 C   0  0  2  0  0  0  0  0  0  0  0  0
    3.4431   -4.5675   -5.7258 C   0  0  0  0  0  0  0  0  0  0  0  0
    4.4924   -4.4618   -6.8561 C   0  0  0  0  0  0  0  0  0  0  0  0
    5.9321   -4.6646   -6.3859 C   0  0  0  0  0  0  0  0  0  0  0  0
    6.4281   -3.5259   -5.4917 C   0  0  0  0  0  0  0  0  0  0  0  0
    7.9634   -3.5871   -5.3851 C   0  0  0  0  0  0  0  0  0  0  0  0
    8.5199   -2.6831   -4.2969 C   0  0  0  0  0  0  0  0  0  0  0  0
    8.1953   -1.2023   -4.5417 C   0  0  0  0  0  0  0  0  0  0  0  0
    8.7842   -0.2937   -3.4547 C   0  0  0  0  0  0  0  0  0  0  0  0
    8.0918   -0.4979   -2.1108 C   0  0  0  0  0  0  0  0  0  0  0  0
    1.9196   -2.7947   -6.7383 C   0  0  0  0  0  0  0  0  0  0  0  0
    0.5192   -2.3137   -6.8494 C   0  0  0  0  0  0  0  0  0  0  0  0
    0.1486   -1.2616   -6.2515 O   0  0  0  0  0  0  0  0  0  0  0  0
   -0.3853   -2.9814   -7.6701 O   0  0  0  0  0  0  0  0  0  0  0  0
    5.3650    1.2325   -1.3546 H   0  0  0  0  0  0  0  0  0  0  0  0
    3.6660    3.2910   -2.4345 H   0  0  0  0  0  0  0  0  0  0  0  0
    6.1722    1.9666   -3.6357 H   0  0  0  0  0  0  0  0  0  0  0  0
    5.1271    3.2131   -4.4057 H   0  0  0  0  0  0  0  0  0  0  0  0
    4.3084    0.2832   -3.7254 H   0  0  0  0  0  0  0  0  0  0  0  0
    4.8182    0.9319   -5.3101 H   0  0  0  0  0  0  0  0  0  0  0  0
    2.5498    0.9310   -5.6090 H   0  0  0  0  0  0  0  0  0  0  0  0
    2.8003    2.6429   -5.0914 H   0  0  0  0  0  0  0  0  0  0  0  0
    2.1447    1.7984   -2.6963 H   0  0  0  0  0  0  0  0  0  0  0  0
    1.8031    0.2205   -3.4326 H   0  0  0  0  0  0  0  0  0  0  0  0
    0.0744    1.2333   -4.9139 H   0  0  0  0  0  0  0  0  0  0  0  0
    0.4732    2.8783   -4.2837 H   0  0  0  0  0  0  0  0  0  0  0  0
   -0.2204    2.2524   -1.9911 H   0  0  0  0  0  0  0  0  0  0  0  0
   -0.4042    0.5236   -2.5192 H   0  0  0  0  0  0  0  0  0  0  0  0
   -2.5566    1.5571   -2.2525 H   0  0  0  0  0  0  0  0  0  0  0  0
   -2.2858    1.0884   -3.9571 H   0  0  0  0  0  0  0  0  0  0  0  0
   -1.8540    3.4650   -4.5824 H   0  0  0  0  0  0  0  0  0  0  0  0
   -1.9611    3.9654   -2.8450 H   0  0  0  0  0  0  0  0  0  0  0  0
   -4.2483    2.6123   -4.4416 H   0  0  0  0  0  0  0  0  0  0  0  0
   -4.0887    4.3713   -4.1363 H   0  0  0  0  0  0  0  0  0  0  0  0
   -4.3328    3.2598   -2.7456 H   0  0  0  0  0  0  0  0  0  0  0  0
    6.6233    3.2999   -1.5232 H   0  0  0  0  0  0  0  0  0  0  0  0
    5.7881    4.6363   -2.4230 H   0  0  0  0  0  0  0  0  0  0  0  0
    3.8542    4.7650    1.8089 H   0  0  0  0  0  0  0  0  0  0  0  0
    6.7187    4.7681    2.9741 H   0  0  0  0  0  0  0  0  0  0  0  0
    6.0960    5.9993    1.8960 H   0  0  0  0  0  0  0  0  0  0  0  0
    4.7142    5.2752    4.6022 H   0  0  0  0  0  0  0  0  0  0  0  0
    6.0188    6.4699    4.4132 H   0  0  0  0  0  0  0  0  0  0  0  0
    4.7135    7.8632    2.8896 H   0  0  0  0  0  0  0  0  0  0  0  0
    3.3636    6.6580    2.8663 H   0  0  0  0  0  0  0  0  0  0  0  0
    2.8509    7.0038    5.2184 H   0  0  0  0  0  0  0  0  0  0  0  0
    4.4035    7.8780    5.4928 H   0  0  0  0  0  0  0  0  0  0  0  0
    3.6675    9.7428    4.0421 H   0  0  0  0  0  0  0  0  0  0  0  0
    2.6301    9.4759    5.4927 H   0  0  0  0  0  0  0  0  0  0  0  0
    0.9571    8.2398    4.0547 H   0  0  0  0  0  0  0  0  0  0  0  0
    1.9591    8.6272    2.5862 H   0  0  0  0  0  0  0  0  0  0  0  0
    0.7380   10.6794    4.5498 H   0  0  0  0  0  0  0  0  0  0  0  0
    1.7537   11.0718    3.1073 H   0  0  0  0  0  0  0  0  0  0  0  0
    0.0853   10.1142    1.5881 H   0  0  0  0  0  0  0  0  0  0  0  0
   -0.9142    9.5246    2.9749 H   0  0  0  0  0  0  0  0  0  0  0  0
   -1.4592   11.7665    3.6842 H   0  0  0  0  0  0  0  0  0  0  0  0
   -0.2284   12.5113    2.5835 H   0  0  0  0  0  0  0  0  0  0  0  0
   -1.7065   11.7171    1.8953 H   0  0  0  0  0  0  0  0  0  0  0  0
    3.6056    2.5203    2.3831 H   0  0  0  0  0  0  0  0  0  0  0  0
    3.8596    3.4689    3.8089 H   0  0  0  0  0  0  0  0  0  0  0  0
    4.1360   -0.5897    4.8205 H   0  0  0  0  0  0  0  0  0  0  0  0
    3.6613   -1.4846    2.8053 H   0  0  0  0  0  0  0  0  0  0  0  0
    5.0203   -0.4627    2.2822 H   0  0  0  0  0  0  0  0  0  0  0  0
    3.3270   -0.6986    0.6134 H   0  0  0  0  0  0  0  0  0  0  0  0
    3.4369    1.0042    0.9851 H   0  0  0  0  0  0  0  0  0  0  0  0
    1.2927   -1.0461    1.9230 H   0  0  0  0  0  0  0  0  0  0  0  0
    1.3075    0.6965    2.3636 H   0  0  0  0  0  0  0  0  0  0  0  0
    1.1223   -0.4095   -0.4976 H   0  0  0  0  0  0  0  0  0  0  0  0
    1.0753    1.3255   -0.0519 H   0  0  0  0  0  0  0  0  0  0  0  0
   -0.8853   -0.8581    0.9551 H   0  0  0  0  0  0  0  0  0  0  0  0
   -1.2165    0.2215   -0.4408 H   0  0  0  0  0  0  0  0  0  0  0  0
   -0.8028    1.1263    2.4925 H   0  0  0  0  0  0  0  0  0  0  0  0
   -1.0296    2.2439    1.0852 H   0  0  0  0  0  0  0  0  0  0  0  0
   -3.2461    1.1463    0.6305 H   0  0  0  0  0  0  0  0  0  0  0  0
   -2.9754    0.0266    2.0211 H   0  0  0  0  0  0  0  0  0  0  0  0
   -3.0663    3.1016    2.2143 H   0  0  0  0  0  0  0  0  0  0  0  0
   -2.8934    1.9487    3.5964 H   0  0  0  0  0  0  0  0  0  0  0  0
   -5.2097    2.6843    3.4705 H   0  0  0  0  0  0  0  0  0  0  0  0
   -5.1575    0.9578    2.9402 H   0  0  0  0  0  0  0  0  0  0  0  0
   -5.3066    2.2833    1.7066 H   0  0  0  0  0  0  0  0  0  0  0  0
    2.9990    1.4641    5.5667 H   0  0  0  0  0  0  0  0  0  0  0  0
    2.2828    1.7204    3.9949 H   0  0  0  0  0  0  0  0  0  0  0  0
   -1.1111    0.4534    5.5317 H   0  0  0  0  0  0  0  0  0  0  0  0
   -0.3203    0.8731    8.3895 H   0  0  0  0  0  0  0  0  0  0  0  0
   -2.0015    0.3979    7.9498 H   0  0  0  0  0  0  0  0  0  0  0  0
   -2.1229    2.1894    6.2392 H   0  0  0  0  0  0  0  0  0  0  0  0
   -1.9615    2.7714    7.9295 H   0  0  0  0  0  0  0  0  0  0  0  0
    0.4527    3.1719    7.6833 H   0  0  0  0  0  0  0  0  0  0  0  0
    0.4668    2.5867    5.9935 H   0  0  0  0  0  0  0  0  0  0  0  0
    0.5199    4.9689    6.0510 H   0  0  0  0  0  0  0  0  0  0  0  0
   -1.0398    5.0424    6.9759 H   0  0  0  0  0  0  0  0  0  0  0  0
   -2.2730    4.0610    5.0887 H   0  0  0  0  0  0  0  0  0  0  0  0
   -0.7344    3.6810    4.2027 H   0  0  0  0  0  0  0  0  0  0  0  0
   -1.8451    6.4979    4.8737 H   0  0  0  0  0  0  0  0  0  0  0  0
   -0.2502    6.1680    4.0660 H   0  0  0  0  0  0  0  0  0  0  0  0
   -1.4434    4.8776    2.2704 H   0  0  0  0  0  0  0  0  0  0  0  0
   -3.0367    5.2746    3.0560 H   0  0  0  0  0  0  0  0  0  0  0  0
   -2.6348    7.6942    2.6828 H   0  0  0  0  0  0  0  0  0  0  0  0
   -1.0195    7.3265    1.9322 H   0  0  0  0  0  0  0  0  0  0  0  0
   -2.6586    7.6272    0.1401 H   0  0  0  0  0  0  0  0  0  0  0  0
   -2.2200    5.8789    0.2092 H   0  0  0  0  0  0  0  0  0  0  0  0
   -3.7996    6.4382    0.9053 H   0  0  0  0  0  0  0  0  0  0  0  0
   -1.6474   -1.7166    7.1996 H   0  0  0  0  0  0  0  0  0  0  0  0
    0.1067   -1.9789    7.1115 H   0  0  0  0  0  0  0  0  0  0  0  0
   -1.1965   -3.6263    3.0925 H   0  0  0  0  0  0  0  0  0  0  0  0
   -3.0301   -5.4099    3.2043 H   0  0  0  0  0  0  0  0  0  0  0  0
   -2.9832   -5.2780    5.0029 H   0  0  0  0  0  0  0  0  0  0  0  0
   -3.6583   -2.9059    4.8675 H   0  0  0  0  0  0  0  0  0  0  0  0
   -3.4350   -2.8928    3.0738 H   0  0  0  0  0  0  0  0  0  0  0  0
   -5.4480   -4.6354    4.5989 H   0  0  0  0  0  0  0  0  0  0  0  0
   -5.2507   -4.5350    2.7890 H   0  0  0  0  0  0  0  0  0  0  0  0
   -6.1117   -2.2312    4.6749 H   0  0  0  0  0  0  0  0  0  0  0  0
   -5.7053   -2.0236    2.9314 H   0  0  0  0  0  0  0  0  0  0  0  0
   -7.4850   -3.4745    2.2311 H   0  0  0  0  0  0  0  0  0  0  0  0
   -8.1372   -2.1631    3.2918 H   0  0  0  0  0  0  0  0  0  0  0  0
   -7.6417   -5.1105    4.1751 H   0  0  0  0  0  0  0  0  0  0  0  0
   -8.1425   -3.7518    5.2521 H   0  0  0  0  0  0  0  0  0  0  0  0
  -10.0634   -5.0730    4.6051 H   0  0  0  0  0  0  0  0  0  0  0  0
  -10.2051   -3.4344    3.8723 H   0  0  0  0  0  0  0  0  0  0  0  0
   -9.1297   -5.9318    2.3712 H   0  0  0  0  0  0  0  0  0  0  0  0
   -9.5105   -4.3205    1.6514 H   0  0  0  0  0  0  0  0  0  0  0  0
  -11.3071   -5.9982    1.2497 H   0  0  0  0  0  0  0  0  0  0  0  0
  -11.5764   -6.1194    3.0301 H   0  0  0  0  0  0  0  0  0  0  0  0
  -11.8772   -4.5417    2.1791 H   0  0  0  0  0  0  0  0  0  0  0  0
   -0.5355   -6.2227    4.5481 H   0  0  0  0  0  0  0  0  0  0  0  0
    0.6983   -5.0661    3.8718 H   0  0  0  0  0  0  0  0  0  0  0  0
   -1.3207   -6.3215   -0.1788 H   0  0  0  0  0  0  0  0  0  0  0  0
    0.4086   -7.9151    0.5256 H   0  0  0  0  0  0  0  0  0  0  0  0
    0.3838   -7.6953   -1.2456 H   0  0  0  0  0  0  0  0  0  0  0  0
    2.2937   -5.8787    0.3070 H   0  0  0  0  0  0  0  0  0  0  0  0
    2.5004   -6.6759   -1.2993 H   0  0  0  0  0  0  0  0  0  0  0  0
    2.7651   -7.9173    1.4757 H   0  0  0  0  0  0  0  0  0  0  0  0
    2.6087   -8.9028   -0.0276 H   0  0  0  0  0  0  0  0  0  0  0  0
    4.9403   -8.7030    0.5200 H   0  0  0  0  0  0  0  0  0  0  0  0
    4.6307   -7.8205   -1.0294 H   0  0  0  0  0  0  0  0  0  0  0  0
    6.2352   -6.8156    0.8586 H   0  0  0  0  0  0  0  0  0  0  0  0
    4.7073   -6.3346    1.7041 H   0  0  0  0  0  0  0  0  0  0  0  0
    4.1155   -5.1899   -0.6554 H   0  0  0  0  0  0  0  0  0  0  0  0
    5.7950   -5.5532   -1.0585 H   0  0  0  0  0  0  0  0  0  0  0  0
    5.2431   -4.0673    1.5736 H   0  0  0  0  0  0  0  0  0  0  0  0
    6.6586   -3.9766    0.4972 H   0  0  0  0  0  0  0  0  0  0  0  0
    3.8453   -2.8303   -0.0104 H   0  0  0  0  0  0  0  0  0  0  0  0
    5.3640   -1.9023    0.3589 H   0  0  0  0  0  0  0  0  0  0  0  0
    6.3479   -2.9585   -1.8132 H   0  0  0  0  0  0  0  0  0  0  0  0
    5.0642   -1.7045   -2.0154 H   0  0  0  0  0  0  0  0  0  0  0  0
    4.6561   -3.4478   -2.2005 H   0  0  0  0  0  0  0  0  0  0  0  0
    0.8178   -5.0395   -1.7399 H   0  0  0  0  0  0  0  0  0  0  0  0
    0.0846   -3.8518   -0.7037 H   0  0  0  0  0  0  0  0  0  0  0  0
   -2.0563   -4.2164   -4.5167 H   0  0  0  0  0  0  0  0  0  0  0  0
   -3.3531   -7.0434   -4.2667 H   0  0  0  0  0  0  0  0  0  0  0  0
   -3.9503   -5.5103   -3.5711 H   0  0  0  0  0  0  0  0  0  0  0  0
   -3.7811   -4.6629   -6.1737 H   0  0  0  0  0  0  0  0  0  0  0  0
   -3.8038   -6.4293   -6.5252 H   0  0  0  0  0  0  0  0  0  0  0  0
   -5.9692   -5.5290   -6.8047 H   0  0  0  0  0  0  0  0  0  0  0  0
   -5.9390   -6.7547   -5.4807 H   0  0  0  0  0  0  0  0  0  0  0  0
   -6.0562   -4.9308   -3.7706 H   0  0  0  0  0  0  0  0  0  0  0  0
   -7.3852   -4.8079   -4.9593 H   0  0  0  0  0  0  0  0  0  0  0  0
   -6.0784   -3.0780   -6.2404 H   0  0  0  0  0  0  0  0  0  0  0  0
   -4.7971   -3.1014   -4.9620 H   0  0  0  0  0  0  0  0  0  0  0  0
   -7.7360   -2.4495   -4.3772 H   0  0  0  0  0  0  0  0  0  0  0  0
   -6.3693   -2.4847   -3.2177 H   0  0  0  0  0  0  0  0  0  0  0  0
   -6.7900   -0.1748   -3.8544 H   0  0  0  0  0  0  0  0  0  0  0  0
   -5.1804   -0.6886   -4.4661 H   0  0  0  0  0  0  0  0  0  0  0  0
   -6.4663    0.7373   -6.0767 H   0  0  0  0  0  0  0  0  0  0  0  0
   -6.0225   -0.8469   -6.7853 H   0  0  0  0  0  0  0  0  0  0  0  0
   -8.3904   -0.0821   -7.3012 H   0  0  0  0  0  0  0  0  0  0  0  0
   -8.7954   -0.2315   -5.5389 H   0  0  0  0  0  0  0  0  0  0  0  0
   -8.3171   -1.6867   -6.5249 H   0  0  0  0  0  0  0  0  0  0  0  0
   -1.4677   -6.8559   -5.9253 H   0  0  0  0  0  0  0  0  0  0  0  0
   -1.2484   -5.1657   -6.5459 H   0  0  0  0  0  0  0  0  0  0  0  0
    1.9337   -4.8843   -7.2008 H   0  0  0  0  0  0  0  0  0  0  0  0
    3.4647   -5.5912   -5.2967 H   0  0  0  0  0  0  0  0  0  0  0  0
    3.6753   -3.8589   -4.9023 H   0  0  0  0  0  0  0  0  0  0  0  0
    4.2650   -5.2273   -7.6296 H   0  0  0  0  0  0  0  0  0  0  0  0
    4.4519   -3.4692   -7.3512 H   0  0  0  0  0  0  0  0  0  0  0  0
    6.0298   -5.6415   -5.8641 H   0  0  0  0  0  0  0  0  0  0  0  0
    6.5602   -4.6697   -7.3104 H   0  0  0  0  0  0  0  0  0  0  0  0
    6.1075   -2.5598   -5.9408 H   0  0  0  0  0  0  0  0  0  0  0  0
    5.9655   -3.6172   -4.4790 H   0  0  0  0  0  0  0  0  0  0  0  0
    8.3985   -3.3064   -6.3715 H   0  0  0  0  0  0  0  0  0  0  0  0
    8.2645   -4.6389   -5.1658 H   0  0  0  0  0  0  0  0  0  0  0  0
    9.6266   -2.8214   -4.2756 H   0  0  0  0  0  0  0  0  0  0  0  0
    8.1134   -3.0404   -3.3310 H   0  0  0  0  0  0  0  0  0  0  0  0
    7.0986   -1.0304   -4.5603 H   0  0  0  0  0  0  0  0  0  0  0  0
    8.6136   -0.8989   -5.5287 H   0  0  0  0  0  0  0  0  0  0  0  0
    8.6363    0.7606   -3.7724 H   0  0  0  0  0  0  0  0  0  0  0  0
    9.8776   -0.4720   -3.3573 H   0  0  0  0  0  0  0  0  0  0  0  0
    8.3187   -1.5024   -1.6896 H   0  0  0  0  0  0  0  0  0  0  0  0
    8.4583    0.2546   -1.3797 H   0  0  0  0  0  0  0  0  0  0  0  0
    6.9906   -0.3754   -2.2291 H   0  0  0  0  0  0  0  0  0  0  0  0
    2.3593   -2.6675   -7.7483 H   0  0  0  0  0  0  0  0  0  0  0  0
    2.4758   -2.1424   -6.0266 H   0  0  0  0  0  0  0  0  0  0  0  0
   -1.3481   -2.6800   -7.7298 H   0  0  0  0  0  0  0  0  0  0  0  0
  1  2  1  0
  2  3  1  0
  3  4  1  0
  4  5  1  0
  5  6  1  0
  6  7  1  0
  7  8  1  0
  8  9  1  0
  9 10  1  0
 10 11  1  0
  2 12  1  0
 12 13  1  0
 13 14  2  0
 13 15  1  0
 15 16  1  0
 16 17  1  0
 17 18  1  0
 18 19  1  0
 19 20  1  0
 20 21  1  0
 21 22  1  0
 22 23  1  0
 23 24  1  0
 24 25  1  0
 16 26  1  0
 26 27  1  0
 27 28  2  0
 27 29  1  0
 29 30  1  0
 30 31  1  0
 31 32  1  0
 32 33  1  0
 33 34  1  0
 34 35  1  0
 35 36  1  0
 36 37  1  0
 37 38  1  0
 38 39  1  0
 30 40  1  0
 40 41  1  0
 41 42  2  0
 41 43  1  0
 43 44  1  0
 44 45  1  0
 45 46  1  0
 46 47  1  0
 47 48  1  0
 48 49  1  0
 49 50  1  0
 50 51  1  0
 51 52  1  0
 52 53  1  0
 44 54  1  0
 54 55  1  0
 55 56  2  0
 55 57  1  0
 57 58  1  0
 58 59  1  0
 59 60  1  0
 60 61  1  0
 61 62  1  0
 62 63  1  0
 63 64  1  0
 64 65  1  0
 65 66  1  0
 66 67  1  0
 58 68  1  0
 68 69  1  0
 69 70  2  0
 69 71  1  0
 71 72  1  0
 72 73  1  0
 73 74  1  0
 74 75  1  0
 75 76  1  0
 76 77  1  0
 77 78  1  0
 78 79  1  0
 79 80  1  0
 80 81  1  0
 72 82  1  0
 82 83  1  0
 83 84  2  0
 83 85  1  0
 85 86  1  0
 86 87  1  0
 87 88  1  0
 88 89  1  0
 89 90  1  0
 90 91  1  0
 91 92  1  0
 92 93  1  0
 93 94  1  0
 94 95  1  0
 86 96  1  0
 96 97  1  0
 97 98  2  0
 97 99  1  0
 99100  1  0
100101  1  0
101102  1  0
102103  1  0
103104  1  0
104105  1  0
105106  1  0
106107  1  0
107108  1  0
108109  1  0
100110  1  0
110111  1  0
111112  2  0
111113  1  0
  1114  1  0
  2115  1  6
  3116  1  0
  3117  1  0
  4118  1  0
  4119  1  0
  5120  1  0
  5121  1  0
  6122  1  0
  6123  1  0
  7124  1  0
  7125  1  0
  8126  1  0
  8127  1  0
  9128  1  0
  9129  1  0
 10130  1  0
 10131  1  0
 11132  1  0
 11133  1  0
 11134  1  0
 12135  1  0
 12136  1  0
 16137  1  6
 17138  1  0
 17139  1  0
 18140  1  0
 18141  1  0
 19142  1  0
 19143  1  0
 20144  1  0
 20145  1  0
 21146  1  0
 21147  1  0
 22148  1  0
 22149  1  0
 23150  1  0
 23151  1  0
 24152  1  0
 24153  1  0
 25154  1  0
 25155  1  0
 25156  1  0
 26157  1  0
 26158  1  0
 30159  1  1
 31160  1  0
 31161  1  0
 32162  1  0
 32163  1  0
 33164  1  0
 33165  1  0
 34166  1  0
 34167  1  0
 35168  1  0
 35169  1  0
 36170  1  0
 36171  1  0
 37172  1  0
 37173  1  0
 38174  1  0
 38175  1  0
 39176  1  0
 39177  1  0
 39178  1  0
 40179  1  0
 40180  1  0
 44181  1  6
 45182  1  0
 45183  1  0
 46184  1  0
 46185  1  0
 47186  1  0
 47187  1  0
 48188  1  0
 48189  1  0
 49190  1  0
 49191  1  0
 50192  1  0
 50193  1  0
 51194  1  0
 51195  1  0
 52196  1  0
 52197  1  0
 53198  1  0
 53199  1  0
 53200  1  0
 54201  1  0
 54202  1  0
 58203  1  6
 59204  1  0
 59205  1  0
 60206  1  0
 60207  1  0
 61208  1  0
 61209  1  0
 62210  1  0
 62211  1  0
 63212  1  0
 63213  1  0
 64214  1  0
 64215  1  0
 65216  1  0
 65217  1  0
 66218  1  0
 66219  1  0
 67220  1  0
 67221  1  0
 67222  1  0
 68223  1  0
 68224  1  0
 72225  1  1
 73226  1  0
 73227  1  0
 74228  1  0
 74229  1  0
 75230  1  0
 75231  1  0
 76232  1  0
 76233  1  0
 77234  1  0
 77235  1  0
 78236  1  0
 78237  1  0
 79238  1  0
 79239  1  0
 80240  1  0
 80241  1  0
 81242  1  0
 81243  1  0
 81244  1  0
 82245  1  0
 82246  1  0
 86247  1  6
 87248  1  0
 87249  1  0
 88250  1  0
 88251  1  0
 89252  1  0
 89253  1  0
 90254  1  0
 90255  1  0
 91256  1  0
 91257  1  0
 92258  1  0
 92259  1  0
 93260  1  0
 93261  1  0
 94262  1  0
 94263  1  0
 95264  1  0
 95265  1  0
 95266  1  0
 96267  1  0
 96268  1  0
100269  1  6
101270  1  0
101271  1  0
102272  1  0
102273  1  0
103274  1  0
103275  1  0
104276  1  0
104277  1  0
105278  1  0
105279  1  0
106280  1  0
106281  1  0
107282  1  0
107283  1  0
108284  1  0
108285  1  0
109286  1  0
109287  1  0
109288  1  0
110289  1  0
110290  1  0
113291  1  0
M  END
$$$$
