
     RDKit          3D

 99 98  0  0  0  0  0  0  0  0999 V2000
   -4.6887    1.0239    1.5140 O   0  0  0  0  0  0  0  0  0  0  0  0
   -3.4073    1.6051    1.4950 C   0  0  2  0  0  0  0  0  0  0  0  0
   -3.1559    2.3994    0.1847 C   0  0  0  0  0  0  0  0  0  0  0  0
   -3.8350    3.7825    0.1738 C   0  0  0  0  0  0  0  0  0  0  0  0
   -5.3519    3.7072   -0.0799 C   0  0  0  0  0  0  0  0  0  0  0  0
   -6.0159    5.0931   -0.0723 C   0  0  0  0  0  0  0  0  0  0  0  0
   -5.7022    5.9112   -1.3276 C   0  0  0  0  0  0  0  0  0  0  0  0
   -2.3187    0.5454    1.7677 C   0  0  0  0  0  0  0  0  0  0  0  0
   -2.3378   -0.6015    0.7957 C   0  0  0  0  0  0  0  0  0  0  0  0
   -2.0850   -0.3969   -0.4229 O   0  0  0  0  0  0  0  0  0  0  0  0
   -2.6332   -1.8941    1.2619 O   0  0  0  0  0  0  0  0  0  0  0  0
   -2.6130   -3.0675    0.4457 C   0  0  2  0  0  0  0  0  0  0  0  0
   -3.5814   -4.1069    1.0463 C   0  0  0  0  0  0  0  0  0  0  0  0
   -5.0380   -3.6022    1.1568 C   0  0  0  0  0  0  0  0  0  0  0  0
   -5.7059   -3.2324   -0.1826 C   0  0  0  0  0  0  0  0  0  0  0  0
   -5.6943   -4.3497   -1.2462 C   0  0  0  0  0  0  0  0  0  0  0  0
   -6.4328   -5.6174   -0.7972 C   0  0  0  0  0  0  0  0  0  0  0  0
   -1.1915   -3.6631    0.3833 C   0  0  0  0  0  0  0  0  0  0  0  0
   -0.2092   -2.7246   -0.2482 C   0  0  0  0  0  0  0  0  0  0  0  0
   -0.3250   -2.4186   -1.4724 O   0  0  0  0  0  0  0  0  0  0  0  0
    0.7819   -2.1474    0.5486 O   0  0  0  0  0  0  0  0  0  0  0  0
    1.8086   -1.2804    0.0560 C   0  0  2  0  0  0  0  0  0  0  0  0
    2.7567   -2.0410   -0.9102 C   0  0  0  0  0  0  0  0  0  0  0  0
    3.3867   -3.3001   -0.2825 C   0  0  0  0  0  0  0  0  0  0  0  0
    4.1316   -4.1234   -1.3450 C   0  0  0  0  0  0  0  0  0  0  0  0
    4.6811   -5.4271   -0.7541 C   0  0  0  0  0  0  0  0  0  0  0  0
    5.3294   -6.2893   -1.8339 C   0  0  0  0  0  0  0  0  0  0  0  0
    2.5361   -0.6700    1.2674 C   0  0  0  0  0  0  0  0  0  0  0  0
    3.6472    0.2446    0.8552 C   0  0  0  0  0  0  0  0  0  0  0  0
    4.8441   -0.1371    0.9587 O   0  0  0  0  0  0  0  0  0  0  0  0
    3.3383    1.5006    0.3232 O   0  0  0  0  0  0  0  0  0  0  0  0
    4.3209    2.3970   -0.1959 C   0  0  2  0  0  0  0  0  0  0  0  0
    3.7377    3.8236   -0.2890 C   0  0  0  0  0  0  0  0  0  0  0  0
    3.1321    4.3268    1.0352 C   0  0  0  0  0  0  0  0  0  0  0  0
    4.1297    4.4551    2.2044 C   0  0  0  0  0  0  0  0  0  0  0  0
    5.1824    5.5682    2.0006 C   0  0  0  0  0  0  0  0  0  0  0  0
    6.5397    5.0242    1.5520 C   0  0  0  0  0  0  0  0  0  0  0  0
    4.8408    1.8994   -1.5619 C   0  0  0  0  0  0  0  0  0  0  0  0
    3.7719    1.8180   -2.6138 C   0  0  0  0  0  0  0  0  0  0  0  0
    2.6911    1.2094   -2.3813 O   0  0  0  0  0  0  0  0  0  0  0  0
    3.9972    2.3803   -3.8702 O   0  0  0  0  0  0  0  0  0  0  0  0
   -4.7731    0.4444    0.7061 H   0  0  0  0  0  0  0  0  0  0  0  0
   -3.3605    2.3217    2.3453 H   0  0  0  0  0  0  0  0  0  0  0  0
   -3.4827    1.8200   -0.7052 H   0  0  0  0  0  0  0  0  0  0  0  0
   -2.0649    2.5713    0.0744 H   0  0  0  0  0  0  0  0  0  0  0  0
   -3.3604    4.3774   -0.6345 H   0  0  0  0  0  0  0  0  0  0  0  0
   -3.6338    4.3130    1.1319 H   0  0  0  0  0  0  0  0  0  0  0  0
   -5.5538    3.1933   -1.0455 H   0  0  0  0  0  0  0  0  0  0  0  0
   -5.8234    3.1109    0.7350 H   0  0  0  0  0  0  0  0  0  0  0  0
   -5.6986    5.6592    0.8310 H   0  0  0  0  0  0  0  0  0  0  0  0
   -7.1165    4.9524   -0.0195 H   0  0  0  0  0  0  0  0  0  0  0  0
   -6.2802    6.8594   -1.3079 H   0  0  0  0  0  0  0  0  0  0  0  0
   -4.6231    6.1653   -1.3763 H   0  0  0  0  0  0  0  0  0  0  0  0
   -5.9859    5.3399   -2.2387 H   0  0  0  0  0  0  0  0  0  0  0  0
   -2.4715    0.1467    2.7930 H   0  0  0  0  0  0  0  0  0  0  0  0
   -1.3123    1.0228    1.7459 H   0  0  0  0  0  0  0  0  0  0  0  0
   -2.9471   -2.8255   -0.5867 H   0  0  0  0  0  0  0  0  0  0  0  0
   -3.2374   -4.3653    2.0729 H   0  0  0  0  0  0  0  0  0  0  0  0
   -3.5501   -5.0468    0.4509 H   0  0  0  0  0  0  0  0  0  0  0  0
   -5.0705   -2.7085    1.8191 H   0  0  0  0  0  0  0  0  0  0  0  0
   -5.6471   -4.3863    1.6609 H   0  0  0  0  0  0  0  0  0  0  0  0
   -5.2124   -2.3300   -0.6066 H   0  0  0  0  0  0  0  0  0  0  0  0
   -6.7641   -2.9483    0.0228 H   0  0  0  0  0  0  0  0  0  0  0  0
   -6.1965   -3.9556   -2.1606 H   0  0  0  0  0  0  0  0  0  0  0  0
   -4.6474   -4.6101   -1.5321 H   0  0  0  0  0  0  0  0  0  0  0  0
   -5.8884   -6.1181    0.0338 H   0  0  0  0  0  0  0  0  0  0  0  0
   -7.4700   -5.3734   -0.4639 H   0  0  0  0  0  0  0  0  0  0  0  0
   -6.4927   -6.3312   -1.6490 H   0  0  0  0  0  0  0  0  0  0  0  0
   -0.8419   -3.9257    1.4074 H   0  0  0  0  0  0  0  0  0  0  0  0
   -1.2020   -4.5988   -0.2166 H   0  0  0  0  0  0  0  0  0  0  0  0
    1.3304   -0.4479   -0.5080 H   0  0  0  0  0  0  0  0  0  0  0  0
    3.5645   -1.3676   -1.2685 H   0  0  0  0  0  0  0  0  0  0  0  0
    2.1778   -2.3289   -1.8134 H   0  0  0  0  0  0  0  0  0  0  0  0
    2.5853   -3.9277    0.1677 H   0  0  0  0  0  0  0  0  0  0  0  0
    4.1026   -3.0025    0.5178 H   0  0  0  0  0  0  0  0  0  0  0  0
    4.9703   -3.5191   -1.7558 H   0  0  0  0  0  0  0  0  0  0  0  0
    3.4307   -4.3630   -2.1776 H   0  0  0  0  0  0  0  0  0  0  0  0
    3.8539   -6.0039   -0.2884 H   0  0  0  0  0  0  0  0  0  0  0  0
    5.4374   -5.1935    0.0313 H   0  0  0  0  0  0  0  0  0  0  0  0
    4.5981   -6.5175   -2.6393 H   0  0  0  0  0  0  0  0  0  0  0  0
    6.2064   -5.7705   -2.2744 H   0  0  0  0  0  0  0  0  0  0  0  0
    5.6663   -7.2459   -1.3911 H   0  0  0  0  0  0  0  0  0  0  0  0
    2.9274   -1.4772    1.9249 H   0  0  0  0  0  0  0  0  0  0  0  0
    1.8038   -0.0820    1.8664 H   0  0  0  0  0  0  0  0  0  0  0  0
    5.1878    2.4259    0.4956 H   0  0  0  0  0  0  0  0  0  0  0  0
    4.5121    4.5340   -0.6477 H   0  0  0  0  0  0  0  0  0  0  0  0
    2.9233    3.8352   -1.0426 H   0  0  0  0  0  0  0  0  0  0  0  0
    2.3153    3.6399    1.3399 H   0  0  0  0  0  0  0  0  0  0  0  0
    2.6555    5.3144    0.8570 H   0  0  0  0  0  0  0  0  0  0  0  0
    3.5342    4.7169    3.1089 H   0  0  0  0  0  0  0  0  0  0  0  0
    4.6086    3.4763    2.4301 H   0  0  0  0  0  0  0  0  0  0  0  0
    5.3322    6.0944    2.9687 H   0  0  0  0  0  0  0  0  0  0  0  0
    4.8323    6.3293    1.2715 H   0  0  0  0  0  0  0  0  0  0  0  0
    6.4710    4.5335    0.5627 H   0  0  0  0  0  0  0  0  0  0  0  0
    7.2770    5.8565    1.4908 H   0  0  0  0  0  0  0  0  0  0  0  0
    6.9103    4.2821    2.2955 H   0  0  0  0  0  0  0  0  0  0  0  0
    5.6516    2.5765   -1.9095 H   0  0  0  0  0  0  0  0  0  0  0  0
    5.2915    0.8910   -1.4474 H   0  0  0  0  0  0  0  0  0  0  0  0
    3.2883    2.3427   -4.5915 H   0  0  0  0  0  0  0  0  0  0  0  0
  1  2  1  0
  2  3  1  0
  3  4  1  0
  4  5  1  0
  5  6  1  0
  6  7  1  0
  2  8  1  0
  8  9  1  0
  9 10  2  0
  9 11  1  0
 11 12  1  0
 12 13  1  0
 13 14  1  0
 14 15  1  0
 15 16  1  0
 16 17  1  0
 12 18  1  0
 18 19  1  0
 19 20  2  0
 19 21  1  0
 21 22  1  0
 22 23  1  0
 23 24  1  0
 24 25  1  0
 25 26  1  0
 26 27  1  0
 22 28  1  0
 28 29  1  0
 29 30  2  0
 29 31  1  0
 31 32  1  0
 32 33  1  0
 33 34  1  0
 34 35  1  0
 35 36  1  0
 36 37  1  0
 32 38  1  0
 38 39  1  0
 39 40  2  0
 39 41  1  0
  1 42  1  0
  2 43  1  1
  3 44  1  0
  3 45  1  0
  4 46  1  0
  4 47  1  0
  5 48  1  0
  5 49  1  0
  6 50  1  0
  6 51  1  0
  7 52  1  0
  7 53  1  0
  7 54  1  0
  8 55  1  0
  8 56  1  0
 12 57  1  6
 13 58  1  0
 13 59  1  0
 14 60  1  0
 14 61  1  0
 15 62  1  0
 15 63  1  0
 16 64  1  0
 16 65  1  0
 17 66  1  0
 17 67  1  0
 17 68  1  0
 18 69  1  0
 18 70  1  0
 22 71  1  6
 23 72  1  0
 23 73  1  0
 24 74  1  0
 24 75  1  0
 25 76  1  0
 25 77  1  0
 26 78  1  0
 26 79  1  0
 27 80  1  0
 27 81  1  0
 27 82  1  0
 28 83  1  0
 28 84  1  0
 32 85  1  1
 33 86  1  0
 33 87  1  0
 34 88  1  0
 34 89  1  0
 35 90  1  0
 35 91  1  0
 36 92  1  0
 36 93  1  0
 37 94  1  0
 37 95  1  0
 37 96  1  0
 38 97  1  0
 38 98  1  0
 41 99  1  0
M  END
$$$$
