
     RDKit          2D

 81 80  0  0  0  0  0  0  0  0999 V2000
    6.4952    2.2500    0.0000 O   0  0  0  0  0  0  0  0  0  0  0  0
    6.4952    0.7500    0.0000 C   0  0  0  0  0  0  0  0  0  0  0  0
    5.1962   -0.0000    0.0000 C   0  0  0  0  0  0  0  0  0  0  0  0
    3.8971    0.7500    0.0000 C   0  0  0  0  0  0  0  0  0  0  0  0
    2.5981   -0.0000    0.0000 C   0  0  0  0  0  0  0  0  0  0  0  0
    1.2990    0.7500    0.0000 C   0  0  0  0  0  0  0  0  0  0  0  0
    0.0000    0.0000    0.0000 C   0  0  0  0  0  0  0  0  0  0  0  0
    7.7942   -0.0000    0.0000 C   0  0  0  0  0  0  0  0  0  0  0  0
    9.0933    0.7500    0.0000 C   0  0  0  0  0  0  0  0  0  0  0  0
    9.0933    2.2500    0.0000 O   0  0  0  0  0  0  0  0  0  0  0  0
   10.3923   -0.0000    0.0000 O   0  0  0  0  0  0  0  0  0  0  0  0
   11.6913    0.7500    0.0000 C   0  0  0  0  0  0  0  0  0  0  0  0
   12.9904   -0.0000    0.0000 C   0  0  0  0  0  0  0  0  0  0  0  0
   14.2894    0.7500    0.0000 C   0  0  0  0  0  0  0  0  0  0  0  0
   15.5885   -0.0000    0.0000 C   0  0  0  0  0  0  0  0  0  0  0  0
   16.8875    0.7500    0.0000 C   0  0  0  0  0  0  0  0  0  0  0  0
   18.1865   -0.0000    0.0000 C   0  0  0  0  0  0  0  0  0  0  0  0
   11.6913    2.2500    0.0000 C   0  0  0  0  0  0  0  0  0  0  0  0
   12.9904    3.0000    0.0000 C   0  0  0  0  0  0  0  0  0  0  0  0
   14.2894    2.2500    0.0000 O   0  0  0  0  0  0  0  0  0  0  0  0
   12.9904    4.5000    0.0000 O   0  0  0  0  0  0  0  0  0  0  0  0
   14.2894    5.2500    0.0000 C   0  0  0  0  0  0  0  0  0  0  0  0
   14.2894    6.7500    0.0000 C   0  0  0  0  0  0  0  0  0  0  0  0
   15.5885    7.5000    0.0000 C   0  0  0  0  0  0  0  0  0  0  0  0
   15.5885    9.0000    0.0000 C   0  0  0  0  0  0  0  0  0  0  0  0
   16.8875    9.7500    0.0000 C   0  0  0  0  0  0  0  0  0  0  0  0
   16.8875   11.2500    0.0000 C   0  0  0  0  0  0  0  0  0  0  0  0
   15.5885    4.5000    0.0000 C   0  0  0  0  0  0  0  0  0  0  0  0
   16.8875    5.2500    0.0000 C   0  0  0  0  0  0  0  0  0  0  0  0
   16.8875    6.7500    0.0000 O   0  0  0  0  0  0  0  0  0  0  0  0
   18.1865    4.5000    0.0000 O   0  0  0  0  0  0  0  0  0  0  0  0
   19.4856    5.2500    0.0000 C   0  0  0  0  0  0  0  0  0  0  0  0
   20.7846    4.5000    0.0000 C   0  0  0  0  0  0  0  0  0  0  0  0
   22.0836    5.2500    0.0000 C   0  0  0  0  0  0  0  0  0  0  0  0
   23.3827    4.5000    0.0000 C   0  0  0  0  0  0  0  0  0  0  0  0
   24.6817    5.2500    0.0000 C   0  0  0  0  0  0  0  0  0  0  0  0
   25.9808    4.5000    0.0000 C   0  0  0  0  0  0  0  0  0  0  0  0
   19.4856    6.7500    0.0000 C   0  0  0  0  0  0  0  0  0  0  0  0
   20.7846    7.5000    0.0000 C   0  0  0  0  0  0  0  0  0  0  0  0
   22.0836    6.7500    0.0000 O   0  0  0  0  0  0  0  0  0  0  0  0
   20.7846    9.0000    0.0000 O   0  0  0  0  0  0  0  0  0  0  0  0
   22.0836    9.7500    0.0000 C   0  0  0  0  0  0  0  0  0  0  0  0
   22.0836   11.2500    0.0000 C   0  0  0  0  0  0  0  0  0  0  0  0
   23.3827   12.0000    0.0000 C   0  0  0  0  0  0  0  0  0  0  0  0
   23.3827   13.5000    0.0000 C   0  0  0  0  0  0  0  0  0  0  0  0
   24.6817   14.2500    0.0000 C   0  0  0  0  0  0  0  0  0  0  0  0
   24.6817   15.7500    0.0000 C   0  0  0  0  0  0  0  0  0  0  0  0
   23.3827    9.0000    0.0000 C   0  0  0  0  0  0  0  0  0  0  0  0
   24.6817    9.7500    0.0000 C   0  0  0  0  0  0  0  0  0  0  0  0
   24.6817   11.2500    0.0000 O   0  0  0  0  0  0  0  0  0  0  0  0
   25.9808    9.0000    0.0000 O   0  0  0  0  0  0  0  0  0  0  0  0
   27.2798    9.7500    0.0000 C   0  0  0  0  0  0  0  0  0  0  0  0
   28.5788    9.0000    0.0000 C   0  0  0  0  0  0  0  0  0  0  0  0
   29.8779    9.7500    0.0000 C   0  0  0  0  0  0  0  0  0  0  0  0
   31.1769    9.0000    0.0000 C   0  0  0  0  0  0  0  0  0  0  0  0
   32.4760    9.7500    0.0000 C   0  0  0  0  0  0  0  0  0  0  0  0
   33.7750    9.0000    0.0000 C   0  0  0  0  0  0  0  0  0  0  0  0
   27.2798   11.2500    0.0000 C   0  0  0  0  0  0  0  0  0  0  0  0
   28.5788   12.0000    0.0000 C   0  0  0  0  0  0  0  0  0  0  0  0
   29.8779   11.2500    0.0000 O   0  0  0  0  0  0  0  0  0  0  0  0
   28.5788   13.5000    0.0000 O   0  0  0  0  0  0  0  0  0  0  0  0
   29.8779   14.2500    0.0000 C   0  0  0  0  0  0  0  0  0  0  0  0
   29.8779   15.7500    0.0000 C   0  0  0  0  0  0  0  0  0  0  0  0
   31.1769   16.5000    0.0000 C   0  0  0  0  0  0  0  0  0  0  0  0
   31.1769   18.0000    0.0000 C   0  0  0  0  0  0  0  0  0  0  0  0
   32.4760   18.7500    0.0000 C   0  0  0  0  0  0  0  0  0  0  0  0
   32.4760   20.2500    0.0000 C   0  0  0  0  0  0  0  0  0  0  0  0
   31.1769   13.5000    0.0000 C   0  0  0  0  0  0  0  0  0  0  0  0
   32.4760   14.2500    0.0000 C   0  0  0  0  0  0  0  0  0  0  0  0
   32.4760   15.7500    0.0000 O   0  0  0  0  0  0  0  0  0  0  0  0
   33.7750   13.5000    0.0000 O   0  0  0  0  0  0  0  0  0  0  0  0
   35.0740   14.2500    0.0000 C   0  0  0  0  0  0  0  0  0  0  0  0
   36.3731   13.5000    0.0000 C   0  0  0  0  0  0  0  0  0  0  0  0
   37.6721   14.2500    0.0000 C   0  0  0  0  0  0  0  0  0  0  0  0
   38.9711   13.5000    0.0000 C   0  0  0  0  0  0  0  0  0  0  0  0
   40.2702   14.2500    0.0000 C   0  0  0  0  0  0  0  0  0  0  0  0
   41.5692   13.5000    0.0000 C   0  0  0  0  0  0  0  0  0  0  0  0
   35.0740   15.7500    0.0000 C   0  0  0  0  0  0  0  0  0  0  0  0
   36.3731   16.5000    0.0000 C   0  0  0  0  0  0  0  0  0  0  0  0
   37.6721   15.7500    0.0000 O   0  0  0  0  0  0  0  0  0  0  0  0
   36.3731   18.0000    0.0000 O   0  0  0  0  0  0  0  0  0  0  0  0
  2  1  1  1
  2  3  1  0
  3  4  1  0
  4  5  1  0
  5  6  1  0
  6  7  1  0
  2  8  1  0
  8  9  1  0
  9 10  2  0
  9 11  1  0
 11 12  1  0
 12 13  1  1
 13 14  1  0
 14 15  1  0
 15 16  1  0
 16 17  1  0
 12 18  1  0
 18 19  1  0
 19 20  2  0
 19 21  1  0
 21 22  1  0
 22 23  1  6
 23 24  1  0
 24 25  1  0
 25 26  1  0
 26 27  1  0
 22 28  1  0
 28 29  1  0
 29 30  2  0
 29 31  1  0
 31 32  1  0
 32 33  1  1
 33 34  1  0
 34 35  1  0
 35 36  1  0
 36 37  1  0
 32 38  1  0
 38 39  1  0
 39 40  2  0
 39 41  1  0
 41 42  1  0
 42 43  1  6
 43 44  1  0
 44 45  1  0
 45 46  1  0
 46 47  1  0
 42 48  1  0
 48 49  1  0
 49 50  2  0
 49 51  1  0
 51 52  1  0
 52 53  1  1
 53 54  1  0
 54 55  1  0
 55 56  1  0
 56 57  1  0
 52 58  1  0
 58 59  1  0
 59 60  2  0
 59 61  1  0
 61 62  1  0
 62 63  1  6
 63 64  1  0
 64 65  1  0
 65 66  1  0
 66 67  1  0
 62 68  1  0
 68 69  1  0
 69 70  2  0
 69 71  1  0
 71 72  1  0
 72 73  1  1
 73 74  1  0
 74 75  1  0
 75 76  1  0
 76 77  1  0
 72 78  1  0
 78 79  1  0
 79 80  2  0
 79 81  1  0
M  END
$$$$
