
     RDKit          3D

195194  0  0  0  0  0  0  0  0999 V2000
   14.3993   -1.9570   -2.2651 O   0  0  0  0  0  0  0  0  0  0  0  0
   14.5865   -1.0052   -3.2856 C   0  0  2  0  0  0  0  0  0  0  0  0
   14.8204    0.4121   -2.7104 C   0  0  0  0  0  0  0  0  0  0  0  0
   16.0327    0.4687   -1.7629 C   0  0  0  0  0  0  0  0  0  0  0  0
   16.0148    1.7228   -0.8699 C   0  0  0  0  0  0  0  0  0  0  0  0
   15.0398    1.5715    0.3120 C   0  0  0  0  0  0  0  0  0  0  0  0
   15.0484    2.8100    1.2041 C   0  0  0  0  0  0  0  0  0  0  0  0
   13.4199   -1.0577   -4.2973 C   0  0  0  0  0  0  0  0  0  0  0  0
   12.1230   -0.5342   -3.7443 C   0  0  0  0  0  0  0  0  0  0  0  0
   11.8434    0.6840   -3.8809 O   0  0  0  0  0  0  0  0  0  0  0  0
   11.2450   -1.4028   -3.0766 O   0  0  0  0  0  0  0  0  0  0  0  0
    9.9854   -1.0007   -2.5240 C   0  0  2  0  0  0  0  0  0  0  0  0
   10.1008   -0.7834   -0.9970 C   0  0  0  0  0  0  0  0  0  0  0  0
   11.1713    0.2279   -0.5531 C   0  0  0  0  0  0  0  0  0  0  0  0
   10.8338    1.7017   -0.8596 C   0  0  0  0  0  0  0  0  0  0  0  0
    9.7942    2.3288    0.0856 C   0  0  0  0  0  0  0  0  0  0  0  0
   10.3227    2.5361    1.5085 C   0  0  0  0  0  0  0  0  0  0  0  0
    8.9457   -2.1019   -2.8287 C   0  0  0  0  0  0  0  0  0  0  0  0
    7.5359   -1.6099   -2.6395 C   0  0  0  0  0  0  0  0  0  0  0  0
    6.8810   -1.2215   -3.6432 O   0  0  0  0  0  0  0  0  0  0  0  0
    6.8965   -1.7843   -1.4010 O   0  0  0  0  0  0  0  0  0  0  0  0
    5.9934   -0.8267   -0.8415 C   0  0  2  0  0  0  0  0  0  0  0  0
    5.8916   -1.0669    0.6796 C   0  0  0  0  0  0  0  0  0  0  0  0
    7.2406   -0.8957    1.3847 C   0  0  0  0  0  0  0  0  0  0  0  0
    7.1088   -1.0144    2.9105 C   0  0  0  0  0  0  0  0  0  0  0  0
    8.4212   -0.6772    3.6335 C   0  0  0  0  0  0  0  0  0  0  0  0
    9.5383   -1.6740    3.3297 C   0  0  0  0  0  0  0  0  0  0  0  0
    4.5858   -0.9156   -1.4866 C   0  0  0  0  0  0  0  0  0  0  0  0
    3.7723    0.3021   -1.1458 C   0  0  0  0  0  0  0  0  0  0  0  0
    4.0347    1.3964   -1.7128 O   0  0  0  0  0  0  0  0  0  0  0  0
    2.7615    0.2277   -0.1732 O   0  0  0  0  0  0  0  0  0  0  0  0
    2.3269    1.3740    0.5687 C   0  0  2  0  0  0  0  0  0  0  0  0
    1.6931    0.9510    1.9149 C   0  0  0  0  0  0  0  0  0  0  0  0
    2.5201   -0.0583    2.7275 C   0  0  0  0  0  0  0  0  0  0  0  0
    2.3867   -1.5100    2.2036 C   0  0  0  0  0  0  0  0  0  0  0  0
    2.4892   -2.5565    3.3246 C   0  0  0  0  0  0  0  0  0  0  0  0
    3.8994   -2.6465    3.9050 C   0  0  0  0  0  0  0  0  0  0  0  0
    1.4153    2.2956   -0.3035 C   0  0  0  0  0  0  0  0  0  0  0  0
   -0.0631    2.2319   -0.0074 C   0  0  0  0  0  0  0  0  0  0  0  0
   -0.5123    2.8520    0.9961 O   0  0  0  0  0  0  0  0  0  0  0  0
   -0.9246    1.4953   -0.8375 O   0  0  0  0  0  0  0  0  0  0  0  0
   -2.3364    1.3665   -0.6104 C   0  0  2  0  0  0  0  0  0  0  0  0
   -2.6762   -0.0839   -0.2203 C   0  0  0  0  0  0  0  0  0  0  0  0
   -1.8641   -0.5611    0.9897 C   0  0  0  0  0  0  0  0  0  0  0  0
   -2.4070   -1.8813    1.5458 C   0  0  0  0  0  0  0  0  0  0  0  0
   -1.7265   -2.2322    2.8738 C   0  0  0  0  0  0  0  0  0  0  0  0
   -2.1494   -3.6170    3.3614 C   0  0  0  0  0  0  0  0  0  0  0  0
   -3.0859    1.7985   -1.8849 C   0  0  0  0  0  0  0  0  0  0  0  0
   -4.5779    1.7221   -1.7248 C   0  0  0  0  0  0  0  0  0  0  0  0
   -5.1652    2.5008   -0.9237 O   0  0  0  0  0  0  0  0  0  0  0  0
   -5.3010    0.7898   -2.4797 O   0  0  0  0  0  0  0  0  0  0  0  0
   -6.6823    0.4736   -2.2738 C   0  0  2  0  0  0  0  0  0  0  0  0
   -6.8366   -0.3586   -0.9759 C   0  0  0  0  0  0  0  0  0  0  0  0
   -6.1375   -1.7270   -1.0323 C   0  0  0  0  0  0  0  0  0  0  0  0
   -6.2537   -2.4495    0.3164 C   0  0  0  0  0  0  0  0  0  0  0  0
   -5.4732   -3.7706    0.3380 C   0  0  0  0  0  0  0  0  0  0  0  0
   -6.1133   -4.8503   -0.5381 C   0  0  0  0  0  0  0  0  0  0  0  0
   -7.2188   -0.2060   -3.5581 C   0  0  0  0  0  0  0  0  0  0  0  0
   -8.4100   -1.1055   -3.3712 C   0  0  0  0  0  0  0  0  0  0  0  0
   -8.3570   -2.2725   -3.8412 O   0  0  0  0  0  0  0  0  0  0  0  0
   -9.5851   -0.6448   -2.7552 O   0  0  0  0  0  0  0  0  0  0  0  0
  -10.6743   -1.5224   -2.4170 C   0  0  2  0  0  0  0  0  0  0  0  0
  -12.0394   -0.9538   -2.8550 C   0  0  0  0  0  0  0  0  0  0  0  0
  -12.2867    0.5309   -2.5158 C   0  0  0  0  0  0  0  0  0  0  0  0
  -13.4024    1.1524   -3.3830 C   0  0  0  0  0  0  0  0  0  0  0  0
  -14.7803    0.4801   -3.2332 C   0  0  0  0  0  0  0  0  0  0  0  0
  -15.4012    0.6921   -1.8533 C   0  0  0  0  0  0  0  0  0  0  0  0
  -10.5885   -1.9779   -0.9422 C   0  0  0  0  0  0  0  0  0  0  0  0
  -11.0614   -0.9833    0.0687 C   0  0  0  0  0  0  0  0  0  0  0  0
  -12.1821   -1.1597    0.6179 O   0  0  0  0  0  0  0  0  0  0  0  0
  -10.2658    0.1184    0.4121 O   0  0  0  0  0  0  0  0  0  0  0  0
  -10.4208    0.8424    1.6378 C   0  0  2  0  0  0  0  0  0  0  0  0
  -11.7122    1.6940    1.6556 C   0  0  0  0  0  0  0  0  0  0  0  0
  -11.7543    2.7961    0.5779 C   0  0  0  0  0  0  0  0  0  0  0  0
  -13.1786    3.3386    0.3709 C   0  0  0  0  0  0  0  0  0  0  0  0
  -13.7171    4.0536    1.6222 C   0  0  0  0  0  0  0  0  0  0  0  0
  -15.0518    4.7353    1.3306 C   0  0  0  0  0  0  0  0  0  0  0  0
   -9.1464    1.6707    1.9055 C   0  0  0  0  0  0  0  0  0  0  0  0
   -9.1937    2.3511    3.2447 C   0  0  0  0  0  0  0  0  0  0  0  0
   -9.4519    3.5844    3.3240 O   0  0  0  0  0  0  0  0  0  0  0  0
   -9.0478    1.6022    4.4063 O   0  0  0  0  0  0  0  0  0  0  0  0
   13.6305   -1.6709   -1.7136 H   0  0  0  0  0  0  0  0  0  0  0  0
   15.5066   -1.2972   -3.8399 H   0  0  0  0  0  0  0  0  0  0  0  0
   13.9100    0.7474   -2.1871 H   0  0  0  0  0  0  0  0  0  0  0  0
   14.9895    1.1194   -3.5519 H   0  0  0  0  0  0  0  0  0  0  0  0
   16.0827   -0.4357   -1.1205 H   0  0  0  0  0  0  0  0  0  0  0  0
   16.9586    0.4803   -2.3828 H   0  0  0  0  0  0  0  0  0  0  0  0
   17.0403    1.8803   -0.4696 H   0  0  0  0  0  0  0  0  0  0  0  0
   15.7472    2.6159   -1.4786 H   0  0  0  0  0  0  0  0  0  0  0  0
   14.0076    1.4205   -0.0551 H   0  0  0  0  0  0  0  0  0  0  0  0
   15.3232    0.6875    0.9205 H   0  0  0  0  0  0  0  0  0  0  0  0
   14.3173    2.6703    2.0286 H   0  0  0  0  0  0  0  0  0  0  0  0
   16.0579    2.9643    1.6399 H   0  0  0  0  0  0  0  0  0  0  0  0
   14.7548    3.7067    0.6187 H   0  0  0  0  0  0  0  0  0  0  0  0
   13.2716   -2.1063   -4.6333 H   0  0  0  0  0  0  0  0  0  0  0  0
   13.6969   -0.4644   -5.1968 H   0  0  0  0  0  0  0  0  0  0  0  0
    9.6375   -0.0647   -3.0118 H   0  0  0  0  0  0  0  0  0  0  0  0
    9.1218   -0.4581   -0.6106 H   0  0  0  0  0  0  0  0  0  0  0  0
   10.3375   -1.7583   -0.5178 H   0  0  0  0  0  0  0  0  0  0  0  0
   11.3505    0.0953    0.5322 H   0  0  0  0  0  0  0  0  0  0  0  0
   12.1297   -0.0349   -1.0350 H   0  0  0  0  0  0  0  0  0  0  0  0
   11.7702    2.2982   -0.8056 H   0  0  0  0  0  0  0  0  0  0  0  0
   10.4675    1.7926   -1.9018 H   0  0  0  0  0  0  0  0  0  0  0  0
    9.5107    3.3220   -0.3199 H   0  0  0  0  0  0  0  0  0  0  0  0
    8.8723    1.7171    0.1098 H   0  0  0  0  0  0  0  0  0  0  0  0
    9.5530    3.0627    2.1098 H   0  0  0  0  0  0  0  0  0  0  0  0
   10.5378    1.5688    2.0039 H   0  0  0  0  0  0  0  0  0  0  0  0
   11.2428    3.1582    1.4914 H   0  0  0  0  0  0  0  0  0  0  0  0
    9.0667   -2.4294   -3.8838 H   0  0  0  0  0  0  0  0  0  0  0  0
    9.1228   -2.9953   -2.1887 H   0  0  0  0  0  0  0  0  0  0  0  0
    6.4112    0.1887   -1.0138 H   0  0  0  0  0  0  0  0  0  0  0  0
    5.5101   -2.0955    0.8681 H   0  0  0  0  0  0  0  0  0  0  0  0
    5.1770   -0.3393    1.1155 H   0  0  0  0  0  0  0  0  0  0  0  0
    7.6447    0.1070    1.1428 H   0  0  0  0  0  0  0  0  0  0  0  0
    7.9356   -1.6798    1.0179 H   0  0  0  0  0  0  0  0  0  0  0  0
    6.7913   -2.0433    3.1798 H   0  0  0  0  0  0  0  0  0  0  0  0
    6.3286   -0.3070    3.2605 H   0  0  0  0  0  0  0  0  0  0  0  0
    8.2237   -0.6937    4.7270 H   0  0  0  0  0  0  0  0  0  0  0  0
    8.7521    0.3471    3.3689 H   0  0  0  0  0  0  0  0  0  0  0  0
    9.1662   -2.7145    3.4114 H   0  0  0  0  0  0  0  0  0  0  0  0
   10.3713   -1.5302    4.0484 H   0  0  0  0  0  0  0  0  0  0  0  0
    9.9345   -1.5140    2.3035 H   0  0  0  0  0  0  0  0  0  0  0  0
    4.0600   -1.8340   -1.1498 H   0  0  0  0  0  0  0  0  0  0  0  0
    4.6689   -0.9704   -2.5950 H   0  0  0  0  0  0  0  0  0  0  0  0
    3.2339    1.9650    0.8350 H   0  0  0  0  0  0  0  0  0  0  0  0
    0.6877    0.5240    1.7639 H   0  0  0  0  0  0  0  0  0  0  0  0
    1.5658    1.8648    2.5311 H   0  0  0  0  0  0  0  0  0  0  0  0
    2.1437   -0.0122    3.7726 H   0  0  0  0  0  0  0  0  0  0  0  0
    3.5880    0.2481    2.7510 H   0  0  0  0  0  0  0  0  0  0  0  0
    1.4032   -1.6514    1.7013 H   0  0  0  0  0  0  0  0  0  0  0  0
    3.1602   -1.7180    1.4368 H   0  0  0  0  0  0  0  0  0  0  0  0
    1.7637   -2.3226    4.1336 H   0  0  0  0  0  0  0  0  0  0  0  0
    2.2172   -3.5525    2.9090 H   0  0  0  0  0  0  0  0  0  0  0  0
    4.6038   -2.9884    3.1201 H   0  0  0  0  0  0  0  0  0  0  0  0
    3.9121   -3.3824    4.7355 H   0  0  0  0  0  0  0  0  0  0  0  0
    4.2270   -1.6624    4.2992 H   0  0  0  0  0  0  0  0  0  0  0  0
    1.5605    2.0727   -1.3804 H   0  0  0  0  0  0  0  0  0  0  0  0
    1.7407    3.3496   -0.1561 H   0  0  0  0  0  0  0  0  0  0  0  0
   -2.6590    2.0381    0.2162 H   0  0  0  0  0  0  0  0  0  0  0  0
   -3.7532   -0.1292    0.0419 H   0  0  0  0  0  0  0  0  0  0  0  0
   -2.4921   -0.7667   -1.0795 H   0  0  0  0  0  0  0  0  0  0  0  0
   -0.8123   -0.7241    0.6667 H   0  0  0  0  0  0  0  0  0  0  0  0
   -1.8901    0.2162    1.7832 H   0  0  0  0  0  0  0  0  0  0  0  0
   -3.4999   -1.7885    1.7272 H   0  0  0  0  0  0  0  0  0  0  0  0
   -2.2310   -2.6899    0.8029 H   0  0  0  0  0  0  0  0  0  0  0  0
   -0.6198   -2.2177    2.7582 H   0  0  0  0  0  0  0  0  0  0  0  0
   -2.0051   -1.4784    3.6449 H   0  0  0  0  0  0  0  0  0  0  0  0
   -3.2572   -3.6753    3.4484 H   0  0  0  0  0  0  0  0  0  0  0  0
   -1.7915   -4.3962    2.6530 H   0  0  0  0  0  0  0  0  0  0  0  0
   -1.7002   -3.8077    4.3618 H   0  0  0  0  0  0  0  0  0  0  0  0
   -2.7673    1.1582   -2.7403 H   0  0  0  0  0  0  0  0  0  0  0  0
   -2.8051    2.8486   -2.1320 H   0  0  0  0  0  0  0  0  0  0  0  0
   -7.2593    1.4167   -2.1314 H   0  0  0  0  0  0  0  0  0  0  0  0
   -7.9139   -0.5008   -0.7531 H   0  0  0  0  0  0  0  0  0  0  0  0
   -6.4165    0.2261   -0.1298 H   0  0  0  0  0  0  0  0  0  0  0  0
   -6.6038   -2.3515   -1.8173 H   0  0  0  0  0  0  0  0  0  0  0  0
   -5.0679   -1.5940   -1.3040 H   0  0  0  0  0  0  0  0  0  0  0  0
   -5.8532   -1.7930    1.1128 H   0  0  0  0  0  0  0  0  0  0  0  0
   -7.3279   -2.6394    0.5450 H   0  0  0  0  0  0  0  0  0  0  0  0
   -5.4341   -4.1388    1.3814 H   0  0  0  0  0  0  0  0  0  0  0  0
   -4.4305   -3.5971   -0.0065 H   0  0  0  0  0  0  0  0  0  0  0  0
   -6.0119   -4.5905   -1.6129 H   0  0  0  0  0  0  0  0  0  0  0  0
   -7.1938   -4.9678   -0.2957 H   0  0  0  0  0  0  0  0  0  0  0  0
   -5.6001   -5.8211   -0.3649 H   0  0  0  0  0  0  0  0  0  0  0  0
   -7.4808    0.5807   -4.2970 H   0  0  0  0  0  0  0  0  0  0  0  0
   -6.3970   -0.8111   -4.0103 H   0  0  0  0  0  0  0  0  0  0  0  0
  -10.5793   -2.4558   -3.0110 H   0  0  0  0  0  0  0  0  0  0  0  0
  -12.1172   -1.0769   -3.9576 H   0  0  0  0  0  0  0  0  0  0  0  0
  -12.8375   -1.5707   -2.3921 H   0  0  0  0  0  0  0  0  0  0  0  0
  -11.3605    1.1197   -2.6791 H   0  0  0  0  0  0  0  0  0  0  0  0
  -12.5536    0.6325   -1.4489 H   0  0  0  0  0  0  0  0  0  0  0  0
  -13.4963    2.2377   -3.1317 H   0  0  0  0  0  0  0  0  0  0  0  0
  -13.0942    1.0948   -4.4519 H   0  0  0  0  0  0  0  0  0  0  0  0
  -14.7157   -0.6063   -3.4540 H   0  0  0  0  0  0  0  0  0  0  0  0
  -15.4624    0.9196   -3.9929 H   0  0  0  0  0  0  0  0  0  0  0  0
  -16.4124    0.2349   -1.8261 H   0  0  0  0  0  0  0  0  0  0  0  0
  -15.4990    1.7772   -1.6397 H   0  0  0  0  0  0  0  0  0  0  0  0
  -14.7905    0.2073   -1.0654 H   0  0  0  0  0  0  0  0  0  0  0  0
   -9.5454   -2.2857   -0.7020 H   0  0  0  0  0  0  0  0  0  0  0  0
  -11.2036   -2.8985   -0.8409 H   0  0  0  0  0  0  0  0  0  0  0  0
  -10.5005    0.1027    2.4649 H   0  0  0  0  0  0  0  0  0  0  0  0
  -12.5888    1.0319    1.5369 H   0  0  0  0  0  0  0  0  0  0  0  0
  -11.8226    2.1613    2.6580 H   0  0  0  0  0  0  0  0  0  0  0  0
  -11.3915    2.3881   -0.3879 H   0  0  0  0  0  0  0  0  0  0  0  0
  -11.0765    3.6292    0.8640 H   0  0  0  0  0  0  0  0  0  0  0  0
  -13.8581    2.5041    0.0975 H   0  0  0  0  0  0  0  0  0  0  0  0
  -13.1544    4.0565   -0.4791 H   0  0  0  0  0  0  0  0  0  0  0  0
  -12.9887    4.8186    1.9655 H   0  0  0  0  0  0  0  0  0  0  0  0
  -13.8711    3.3212    2.4437 H   0  0  0  0  0  0  0  0  0  0  0  0
  -15.4321    5.2167    2.2575 H   0  0  0  0  0  0  0  0  0  0  0  0
  -15.7979    3.9881    0.9853 H   0  0  0  0  0  0  0  0  0  0  0  0
  -14.9208    5.5149    0.5519 H   0  0  0  0  0  0  0  0  0  0  0  0
   -8.9927    2.4244    1.1051 H   0  0  0  0  0  0  0  0  0  0  0  0
   -8.2683    0.9956    1.8987 H   0  0  0  0  0  0  0  0  0  0  0  0
   -9.0979    2.0382    5.3222 H   0  0  0  0  0  0  0  0  0  0  0  0
  1  2  1  0
  2  3  1  0
  3  4  1  0
  4  5  1  0
  5  6  1  0
  6  7  1  0
  2  8  1  0
  8  9  1  0
  9 10  2  0
  9 11  1  0
 11 12  1  0
 12 13  1  0
 13 14  1  0
 14 15  1  0
 15 16  1  0
 16 17  1  0
 12 18  1  0
 18 19  1  0
 19 20  2  0
 19 21  1  0
 21 22  1  0
 22 23  1  0
 23 24  1  0
 24 25  1  0
 25 26  1  0
 26 27  1  0
 22 28  1  0
 28 29  1  0
 29 30  2  0
 29 31  1  0
 31 32  1  0
 32 33  1  0
 33 34  1  0
 34 35  1  0
 35 36  1  0
 36 37  1  0
 32 38  1  0
 38 39  1  0
 39 40  2  0
 39 41  1  0
 41 42  1  0
 42 43  1  0
 43 44  1  0
 44 45  1  0
 45 46  1  0
 46 47  1  0
 42 48  1  0
 48 49  1  0
 49 50  2  0
 49 51  1  0
 51 52  1  0
 52 53  1  0
 53 54  1  0
 54 55  1  0
 55 56  1  0
 56 57  1  0
 52 58  1  0
 58 59  1  0
 59 60  2  0
 59 61  1  0
 61 62  1  0
 62 63  1  0
 63 64  1  0
 64 65  1  0
 65 66  1  0
 66 67  1  0
 62 68  1  0
 68 69  1  0
 69 70  2  0
 69 71  1  0
 71 72  1  0
 72 73  1  0
 73 74  1  0
 74 75  1  0
 75 76  1  0
 76 77  1  0
 72 78  1  0
 78 79  1  0
 79 80  2  0
 79 81  1  0
  1 82  1  0
  2 83  1  6
  3 84  1  0
  3 85  1  0
  4 86  1  0
  4 87  1  0
  5 88  1  0
  5 89  1  0
  6 90  1  0
  6 91  1  0
  7 92  1  0
  7 93  1  0
  7 94  1  0
  8 95  1  0
  8 96  1  0
 12 97  1  6
 13 98  1  0
 13 99  1  0
 14100  1  0
 14101  1  0
 15102  1  0
 15103  1  0
 16104  1  0
 16105  1  0
 17106  1  0
 17107  1  0
 17108  1  0
 18109  1  0
 18110  1  0
 22111  1  1
 23112  1  0
 23113  1  0
 24114  1  0
 24115  1  0
 25116  1  0
 25117  1  0
 26118  1  0
 26119  1  0
 27120  1  0
 27121  1  0
 27122  1  0
 28123  1  0
 28124  1  0
 32125  1  1
 33126  1  0
 33127  1  0
 34128  1  0
 34129  1  0
 35130  1  0
 35131  1  0
 36132  1  0
 36133  1  0
 37134  1  0
 37135  1  0
 37136  1  0
 38137  1  0
 38138  1  0
 42139  1  1
 43140  1  0
 43141  1  0
 44142  1  0
 44143  1  0
 45144  1  0
 45145  1  0
 46146  1  0
 46147  1  0
 47148  1  0
 47149  1  0
 47150  1  0
 48151  1  0
 48152  1  0
 52153  1  1
 53154  1  0
 53155  1  0
 54156  1  0
 54157  1  0
 55158  1  0
 55159  1  0
 56160  1  0
 56161  1  0
 57162  1  0
 57163  1  0
 57164  1  0
 58165  1  0
 58166  1  0
 62167  1  6
 63168  1  0
 63169  1  0
 64170  1  0
 64171  1  0
 65172  1  0
 65173  1  0
 66174  1  0
 66175  1  0
 67176  1  0
 67177  1  0
 67178  1  0
 68179  1  0
 68180  1  0
 72181  1  1
 73182  1  0
 73183  1  0
 74184  1  0
 74185  1  0
 75186  1  0
 75187  1  0
 76188  1  0
 76189  1  0
 77190  1  0
 77191  1  0
 77192  1  0
 78193  1  0
 78194  1  0
 81195  1  0
M  END
$$$$
