@<TRIPOS>MOLECULE
AAA
   39    41     1     0     0
SMALL
abcg2


@<TRIPOS>ATOM
      1 O            1.1190    -0.0350    -0.0090 oh         1 AAA      -0.668000
      2 C            2.5490    -0.0240     0.0400 c3         1 AAA       0.170300
      3 C1           2.9770    -0.3220     1.4760 c3         1 AAA      -0.136100
      4 C2           3.1020    -1.0510    -0.9670 c3         1 AAA      -0.082400
      5 C3           4.6130    -0.9660    -1.0240 c3         1 AAA       0.596000
      6 O1           5.2500    -0.0760    -0.4700 os         1 AAA      -0.539000
      7 O2           5.1930    -1.9760    -1.7510 os         1 AAA      -0.480000
      8 C4           6.6580    -1.9620    -1.7480 c3         1 AAA       0.177300
      9 C5           7.1540    -2.3010    -0.3330 c3         1 AAA      -0.121100
     10 C6           7.2240    -2.9820    -2.7770 c3         1 AAA      -0.087400
     11 C7           8.7460    -2.8990    -2.8410 c3         1 AAA       0.594000
     12 O3           9.3870    -2.0060    -2.2970 os         1 AAA      -0.530000
     13 O4           9.3340    -3.9110    -3.5640 os         1 AAA      -0.483000
     14 C8          10.8040    -3.8950    -3.5590 c3         1 AAA       0.185300
     15 C9          11.3010    -4.2370    -2.1460 c3         1 AAA      -0.123100
     16 C10         11.3680    -4.9160    -4.5800 c3         1 AAA      -0.134400
     17 C11         12.8880    -4.8760    -4.6320 c3         1 AAA       0.582000
     18 O5          13.5890    -4.0710    -4.0250 os         1 AAA      -0.482000
     19 O6          13.4560    -5.8070    -5.4260 oh         1 AAA      -0.624000
     20 H            0.8040     0.6360     0.6260 ho         1 AAA       0.447000
     21 H1           2.8700     0.9860    -0.2420 h1         1 AAA       0.053700
     22 H2           2.6000    -1.2990     1.7960 hc         1 AAA       0.050700
     23 H3           2.5670     0.4230     2.1660 hc         1 AAA       0.050700
     24 H4           4.0620    -0.3180     1.6000 hc         1 AAA       0.050700
     25 H5           2.6980    -0.8360    -1.9630 hc         1 AAA       0.094200
     26 H6           2.7720    -2.0570    -0.6830 hc         1 AAA       0.094200
     27 H7           6.9880    -0.9570    -2.0450 h1         1 AAA       0.097700
     28 H8           6.7750    -3.2790    -0.0240 hc         1 AAA       0.053367
     29 H9           6.8090    -1.5800     0.4120 hc         1 AAA       0.053367
     30 H10          8.2430    -2.3100    -0.2570 hc         1 AAA       0.053367
     31 H11          6.8240    -2.7620    -3.7730 hc         1 AAA       0.093700
     32 H12          6.9040    -3.9930    -2.5010 hc         1 AAA       0.093700
     33 H13         11.1380    -2.8930    -3.8610 h1         1 AAA       0.094700
     34 H14         10.9260    -5.2180    -1.8410 hc         1 AAA       0.057367
     35 H15         10.9550    -3.5170    -1.4010 hc         1 AAA       0.057367
     36 H16         12.3890    -4.2440    -2.0670 hc         1 AAA       0.057367
     37 H17         10.9840    -4.6930    -5.5820 hc         1 AAA       0.083700
     38 H18         11.0350    -5.9260    -4.3150 hc         1 AAA       0.083700
     39 H19         12.8510    -6.3890    -5.9210 ho         1 AAA       0.463000
@<TRIPOS>BOND
     1     1     2 1   
     2     1    20 1   
     3     2     3 1   
     4     2     4 1   
     5     2    21 1   
     6     3    22 1   
     7     3    23 1   
     8     3    24 1   
     9     4     5 1   
    10     4    25 1   
    11     4    26 1   
    12     5     6 1   
    13     5     6 1   
    14     5     7 1   
    15     7     8 1   
    16     8     9 1   
    17     8    10 1   
    18     8    27 1   
    19     9    28 1   
    20     9    29 1   
    21     9    30 1   
    22    10    11 1   
    23    10    31 1   
    24    10    32 1   
    25    11    12 1   
    26    11    12 1   
    27    11    13 1   
    28    13    14 1   
    29    14    15 1   
    30    14    16 1   
    31    14    33 1   
    32    15    34 1   
    33    15    35 1   
    34    15    36 1   
    35    16    17 1   
    36    16    37 1   
    37    16    38 1   
    38    17    18 1   
    39    17    18 1   
    40    17    19 1   
    41    19    39 1   
@<TRIPOS>SUBSTRUCTURE
     1 AAA         1 TEMP              0 ****  ****    0 ROOT
